version 2
run General-99-20191219-16:45:52-17308
attr configname General
attr datetime 20191219-16:45:52
attr experiment General
attr inifile omnetpp.ini
attr iterationvars ""
attr iterationvarsf ""
attr measurement ""
attr network CellularNetwork
attr processid 17308
attr repetition 99
attr replication #99
attr resultdir results
attr runnumber 99
attr seedset 99
param **.nUsers 10
param **.antenna.timeslot 0.01s
param **.user[*].lambda 0.008s

vector 0 CellularNetwork.antenna throughput:vector ETV
attr source throughput
vector 1 CellularNetwork.antenna NumServedUser:vector ETV
attr source NumServedUser
vector 2 CellularNetwork.antenna tptUser-0:vector ETV
vector 3 CellularNetwork.antenna tptUser-1:vector ETV
vector 4 CellularNetwork.antenna tptUser-2:vector ETV
vector 5 CellularNetwork.antenna tptUser-3:vector ETV
vector 6 CellularNetwork.antenna tptUser-4:vector ETV
vector 7 CellularNetwork.antenna tptUser-5:vector ETV
vector 8 CellularNetwork.antenna tptUser-6:vector ETV
vector 9 CellularNetwork.antenna tptUser-7:vector ETV
vector 10 CellularNetwork.antenna tptUser-8:vector ETV
vector 11 CellularNetwork.antenna tptUser-9:vector ETV
vector 12 CellularNetwork.antenna responseTime:vector ETV
attr source responseTime
0	42	0.01	0
0	83	0.02	769
0	118	0.03	334
0	149	0.04	483
0	188	0.05	722
0	227	0.06	430
0	270	0.07	441
0	323	0.08	415
0	372	0.09	635
0	423	0.1	830
0	462	0.11	665
0	503	0.12	682
0	530	0.13	532
0	571	0.14	881
0	600	0.15	294
0	633	0.16	499
0	670	0.17	433
0	709	0.18	558
0	742	0.19	465
0	777	0.2	480
0	814	0.21	381
0	849	0.22	568
0	876	0.23	435
0	917	0.24	233
0	958	0.25	543
0	995	0.26	375
0	1032	0.27	575
0	1061	0.28	500
0	1094	0.29	466
0	1127	0.3	725
0	1168	0.31	339
0	1205	0.32	542
0	1258	0.33	374
0	1279	0.34	627
0	1322	0.35	503
0	1357	0.36	580
0	1394	0.37	884
0	1443	0.38	456
0	1474	0.39	387
0	1523	0.4	709
0	1552	0.41	842
0	1591	0.42	334
0	1614	0.43	607
0	1641	0.44	195
0	1688	0.45	265
0	1729	0.46	743
0	1768	0.47	387
0	1791	0.48	628
0	1830	0.49	144
0	1859	0.5	520
0	1896	0.51	447
0	1929	0.52	221
0	1966	0.53	399
0	2017	0.54	360
0	2058	0.55	478
0	2091	0.56	1098
0	2130	0.57	560
0	2169	0.58	683
0	2204	0.59	627
0	2247	0.6	585
0	2284	0.61	268
0	2319	0.62	528
0	2360	0.63	659
0	2395	0.64	599
0	2442	0.65	343
0	2477	0.66	503
0	2522	0.67	404
0	2557	0.68	631
0	2582	0.69	411
0	2609	0.7	247
0	2648	0.71	576
0	2671	0.72	418
0	2724	0.73	271
0	2763	0.74	666
0	2794	0.75	539
0	2815	0.76	265
0	2854	0.77	350
0	2895	0.78	443
0	2926	0.79	477
0	2965	0.8	397
0	3004	0.81	509
0	3041	0.82	260
0	3086	0.83	486
0	3109	0.84	551
0	3146	0.85	471
0	3183	0.86	441
0	3208	0.87	429
0	3261	0.88	373
0	3298	0.89	691
0	3333	0.9	750
0	3362	0.91	320
0	3379	0.92	416
0	3414	0.93	39
0	3447	0.94	386
0	3484	0.95	600
0	3513	0.96	493
0	3564	0.97	360
0	3621	0.98	695
0	3648	0.99	621
0	3677	1	452
0	3706	1.01	431
0	3751	1.02	106
0	3780	1.03	827
0	3821	1.04	342
0	3868	1.05	522
0	3889	1.06	179
0	3928	1.07	906
0	3967	1.08	458
0	4016	1.09	454
0	4049	1.1	324
0	4088	1.11	565
0	4123	1.12	362
0	4176	1.13	568
0	4207	1.14	729
0	4250	1.15	649
0	4279	1.16	498
0	4318	1.17	734
0	4357	1.18	468
0	4394	1.19	261
0	4423	1.2	632
0	4460	1.21	274
0	4487	1.22	568
0	4524	1.23	624
0	4561	1.24	500
0	4590	1.25	542
0	4641	1.26	439
0	4692	1.27	729
0	4731	1.28	599
0	4768	1.29	615
0	4813	1.3	315
0	4848	1.31	390
0	4897	1.32	649
0	4916	1.33	952
0	4939	1.34	160
0	4976	1.35	218
0	5027	1.36	623
0	5054	1.37	524
0	5095	1.38	466
0	5118	1.39	593
0	5153	1.4	219
0	5182	1.41	273
0	5219	1.42	295
0	5250	1.43	502
0	5279	1.44	588
0	5316	1.45	293
0	5365	1.46	361
0	5390	1.47	683
0	5431	1.48	149
0	5472	1.49	1034
0	5509	1.5	562
0	5542	1.51	481
0	5575	1.52	365
0	5612	1.53	326
0	5647	1.54	654
0	5678	1.55	370
0	5725	1.56	318
0	5754	1.57	311
0	5799	1.58	359
0	5846	1.59	564
0	5889	1.6	466
0	5928	1.61	582
0	5969	1.62	361
0	6018	1.63	384
0	6049	1.64	769
0	6084	1.65	1090
0	6117	1.66	379
0	6170	1.67	339
0	6203	1.68	132
0	6226	1.69	306
0	6271	1.7	268
0	6312	1.71	962
0	6367	1.72	792
0	6410	1.73	731
0	6445	1.74	793
0	6478	1.75	341
0	6517	1.76	343
0	6560	1.77	731
0	6599	1.78	495
0	6640	1.79	535
0	6669	1.8	511
0	6720	1.81	391
0	6753	1.82	109
0	6792	1.83	367
0	6827	1.84	528
0	6856	1.85	761
0	6909	1.86	906
0	6948	1.87	597
0	6991	1.88	461
0	7030	1.89	611
0	7067	1.9	951
0	7106	1.91	406
0	7135	1.92	299
0	7172	1.93	145
0	7209	1.94	574
0	7254	1.95	408
0	7297	1.96	738
0	7338	1.97	316
0	7367	1.98	786
0	7410	1.99	396
0	7443	2	716
0	7468	2.01	460
0	7507	2.02	224
0	7546	2.03	461
0	7577	2.04	446
0	7616	2.05	439
0	7657	2.06	672
0	7682	2.07	664
0	7711	2.08	356
0	7738	2.09	218
0	7767	2.1	336
0	7808	2.11	379
0	7835	2.12	506
0	7864	2.13	326
0	7903	2.14	394
0	7938	2.15	374
0	7973	2.16	262
0	8016	2.17	592
0	8037	2.18	342
0	8080	2.19	392
0	8115	2.2	388
0	8156	2.21	569
0	8195	2.22	543
0	8230	2.23	531
0	8265	2.24	335
0	8308	2.25	242
0	8341	2.26	574
0	8380	2.27	502
0	8409	2.28	733
0	8442	2.29	388
0	8477	2.3	164
0	8514	2.31	625
0	8565	2.32	295
0	8604	2.33	692
0	8633	2.34	570
0	8664	2.35	386
0	8715	2.36	197
0	8752	2.37	737
0	8787	2.38	249
0	8814	2.39	326
0	8855	2.4	353
0	8880	2.41	308
0	8917	2.42	634
0	8956	2.43	409
0	8995	2.44	690
0	9026	2.45	865
0	9073	2.46	448
0	9106	2.47	631
0	9125	2.48	531
0	9160	2.49	274
0	9191	2.5	366
0	9226	2.51	184
0	9263	2.52	325
0	9308	2.53	391
0	9339	2.54	862
0	9370	2.55	358
0	9403	2.56	351
0	9442	2.57	434
0	9471	2.58	369
0	9502	2.59	340
0	9541	2.6	622
0	9582	2.61	383
0	9621	2.62	623
0	9656	2.63	490
0	9685	2.64	463
0	9732	2.65	492
0	9771	2.66	211
0	9804	2.67	490
0	9833	2.68	471
0	9868	2.69	644
0	9897	2.7	440
0	9942	2.71	127
0	9969	2.72	385
0	10006	2.73	423
0	10051	2.74	427
0	10090	2.75	312
0	10123	2.76	647
0	10146	2.77	745
0	10191	2.78	214
0	10228	2.79	520
0	10259	2.8	569
0	10312	2.81	473
0	10351	2.82	336
0	10384	2.83	866
0	10425	2.84	691
0	10448	2.85	598
0	10485	2.86	153
0	10530	2.87	324
0	10557	2.88	521
0	10592	2.89	915
0	10615	2.9	534
0	10658	2.91	209
0	10699	2.92	666
0	10744	2.93	528
0	10783	2.94	425
0	10814	2.95	318
0	10849	2.96	337
0	10884	2.97	450
0	10921	2.98	699
0	10954	2.99	335
0	10983	3	453
0	11032	3.01	269
0	11067	3.02	526
0	11104	3.03	1039
0	11149	3.04	539
0	11178	3.05	422
0	11211	3.06	243
0	11238	3.07	244
0	11271	3.08	259
0	11304	3.09	750
0	11337	3.1	735
0	11374	3.11	358
0	11395	3.12	154
0	11442	3.13	442
0	11487	3.14	233
0	11528	3.15	252
0	11555	3.16	176
0	11598	3.17	547
0	11629	3.18	145
0	11676	3.19	494
0	11725	3.2	672
0	11768	3.21	822
0	11805	3.22	380
0	11832	3.23	304
0	11883	3.24	495
0	11938	3.25	878
0	11969	3.26	418
0	12004	3.27	863
0	12039	3.28	139
0	12092	3.29	754
0	12117	3.3	262
0	12176	3.31	748
0	12229	3.32	592
0	12268	3.33	688
0	12303	3.34	795
0	12348	3.35	1107
0	12387	3.36	904
0	12428	3.37	501
0	12463	3.38	801
0	12510	3.39	845
0	12541	3.4	677
0	12568	3.41	658
0	12599	3.42	1127
0	12634	3.43	340
0	12667	3.44	702
0	12694	3.45	355
0	12719	3.46	556
0	12778	3.47	285
0	12803	3.48	596
0	12838	3.49	220
0	12873	3.5	625
0	12924	3.51	356
0	12955	3.52	303
0	12994	3.53	794
0	13023	3.54	362
0	13068	3.55	349
0	13101	3.56	513
0	13138	3.57	522
0	13171	3.58	178
0	13210	3.59	181
0	13241	3.6	442
0	13288	3.61	828
0	13327	3.62	354
0	13362	3.63	447
0	13399	3.64	624
0	13432	3.65	781
0	13461	3.66	397
0	13510	3.67	535
0	13537	3.68	833
0	13576	3.69	402
0	13619	3.7	425
0	13662	3.71	607
0	13703	3.72	746
0	13732	3.73	398
0	13777	3.74	452
0	13812	3.75	670
0	13857	3.76	616
0	13896	3.77	616
0	13929	3.78	69
0	13966	3.79	501
0	13999	3.8	446
0	14034	3.81	468
0	14079	3.82	613
0	14128	3.83	330
0	14173	3.84	548
0	14212	3.85	815
0	14245	3.86	1007
0	14290	3.87	451
0	14331	3.88	488
0	14370	3.89	294
0	14407	3.9	589
0	14450	3.91	360
0	14497	3.92	1177
0	14528	3.93	694
0	14557	3.94	422
0	14596	3.95	395
0	14637	3.96	247
0	14670	3.97	338
0	14723	3.98	149
0	14758	3.99	349
0	14785	4	597
0	14826	4.01	433
0	14863	4.02	1265
0	14902	4.03	463
0	14935	4.04	389
0	14958	4.05	334
0	14995	4.06	344
0	15024	4.07	681
0	15051	4.08	326
0	15094	4.09	406
0	15123	4.1	414
0	15160	4.11	472
0	15195	4.12	275
0	15230	4.13	375
0	15267	4.14	356
0	15302	4.15	630
0	15335	4.16	477
0	15366	4.17	418
0	15415	4.18	417
0	15460	4.19	718
0	15511	4.2	447
0	15554	4.21	617
0	15585	4.22	197
0	15614	4.23	400
0	15647	4.24	830
0	15672	4.25	544
0	15709	4.26	244
0	15742	4.27	246
0	15787	4.28	396
0	15820	4.29	135
0	15853	4.3	475
0	15884	4.31	674
0	15927	4.32	626
0	15958	4.33	681
0	15989	4.34	396
0	16026	4.35	321
0	16065	4.36	161
0	16102	4.37	760
0	16141	4.38	473
0	16180	4.39	490
0	16227	4.4	274
0	16268	4.41	483
0	16299	4.42	882
0	16336	4.43	370
0	16367	4.44	649
0	16400	4.45	323
0	16427	4.46	364
0	16458	4.47	223
0	16491	4.48	408
0	16538	4.49	925
0	16575	4.5	685
0	16624	4.51	179
0	16663	4.52	378
0	16712	4.53	280
0	16745	4.54	325
0	16780	4.55	523
0	16835	4.56	802
0	16870	4.57	643
0	16903	4.58	523
0	16946	4.59	470
0	16967	4.6	769
0	17002	4.61	802
0	17031	4.62	453
0	17066	4.63	585
0	17097	4.64	416
0	17136	4.65	408
0	17171	4.66	424
0	17204	4.67	567
0	17235	4.68	518
0	17276	4.69	456
0	17305	4.7	349
0	17340	4.71	524
0	17373	4.72	562
0	17410	4.73	350
0	17445	4.74	497
0	17474	4.75	146
0	17515	4.76	650
0	17558	4.77	439
0	17593	4.78	363
0	17628	4.79	799
0	17669	4.8	399
0	17708	4.81	220
0	17749	4.82	1086
0	17788	4.83	379
0	17817	4.84	814
0	17852	4.85	383
0	17895	4.86	490
0	17930	4.87	577
0	17969	4.88	385
0	18014	4.89	586
0	18049	4.9	494
0	18086	4.91	648
0	18115	4.92	268
0	18144	4.93	687
0	18179	4.94	232
0	18218	4.95	298
0	18247	4.96	334
0	18272	4.97	669
0	18307	4.98	314
0	18350	4.99	305
0	18387	5	367
0	18428	5.01	584
0	18469	5.02	301
0	18496	5.03	190
0	18527	5.04	646
0	18572	5.05	859
0	18597	5.06	444
0	18634	5.07	307
0	18669	5.08	491
0	18712	5.09	572
0	18749	5.1	605
0	18784	5.11	503
0	18821	5.12	644
0	18862	5.13	333
0	18887	5.14	421
0	18934	5.15	309
0	18975	5.16	489
0	19006	5.17	751
0	19033	5.18	950
0	19070	5.19	125
0	19107	5.2	728
0	19136	5.21	662
0	19167	5.22	298
0	19204	5.23	348
0	19235	5.24	220
0	19264	5.25	500
0	19307	5.26	635
0	19352	5.27	697
0	19389	5.28	929
0	19420	5.29	563
0	19457	5.3	288
0	19496	5.31	506
0	19531	5.32	473
0	19564	5.33	360
0	19595	5.34	700
0	19636	5.35	453
0	19665	5.36	539
0	19706	5.37	229
0	19739	5.38	267
0	19770	5.39	518
0	19819	5.4	430
0	19862	5.41	550
0	19901	5.42	644
0	19932	5.43	338
0	19969	5.44	522
0	20006	5.45	391
0	20053	5.46	679
0	20088	5.47	777
0	20111	5.48	439
0	20146	5.49	685
0	20193	5.5	549
0	20236	5.51	537
0	20273	5.52	430
0	20318	5.53	646
0	20349	5.54	552
0	20388	5.55	190
0	20427	5.56	363
0	20454	5.57	493
0	20497	5.58	579
0	20534	5.59	835
0	20569	5.6	300
0	20608	5.61	601
0	20637	5.62	408
0	20664	5.63	200
0	20707	5.64	324
0	20738	5.65	644
0	20779	5.66	637
0	20822	5.67	664
0	20857	5.68	451
0	20880	5.69	209
0	20925	5.7	421
0	20958	5.71	451
0	20993	5.72	666
0	21036	5.73	381
0	21067	5.74	767
0	21092	5.75	318
0	21151	5.76	309
0	21178	5.77	366
0	21203	5.78	257
0	21248	5.79	506
0	21273	5.8	691
0	21320	5.81	534
0	21361	5.82	827
0	21390	5.83	433
0	21433	5.84	530
0	21468	5.85	479
0	21497	5.86	298
0	21520	5.87	156
0	21571	5.88	322
0	21608	5.89	557
0	21633	5.9	258
0	21664	5.91	231
0	21693	5.92	356
0	21730	5.93	304
0	21771	5.94	657
0	21810	5.95	855
0	21843	5.96	741
0	21872	5.97	391
0	21905	5.98	259
0	21936	5.99	612
0	21967	6	250
0	22004	6.01	429
0	22047	6.02	632
0	22082	6.03	561
0	22127	6.04	413
0	22158	6.05	526
0	22189	6.06	431
0	22228	6.07	255
0	22269	6.08	272
0	22306	6.09	707
0	22351	6.1	422
0	22382	6.11	646
0	22413	6.12	352
0	22460	6.13	436
0	22497	6.14	622
0	22536	6.15	183
0	22573	6.16	202
0	22604	6.17	244
0	22645	6.18	715
0	22674	6.19	292
0	22711	6.2	481
0	22740	6.21	630
0	22787	6.22	619
0	22830	6.23	241
0	22871	6.24	671
0	22910	6.25	972
0	22945	6.26	810
0	22986	6.27	389
0	23019	6.28	420
0	23060	6.29	333
0	23095	6.3	888
0	23134	6.31	226
0	23157	6.32	621
0	23192	6.33	210
0	23213	6.34	748
0	23250	6.35	179
0	23279	6.36	437
0	23320	6.37	460
0	23349	6.38	462
0	23392	6.39	391
0	23423	6.4	372
0	23470	6.41	438
0	23519	6.42	808
0	23552	6.43	512
0	23587	6.44	410
0	23624	6.45	932
0	23661	6.46	251
0	23692	6.47	207
0	23729	6.48	530
0	23770	6.49	313
0	23811	6.5	809
0	23854	6.51	649
0	23899	6.52	584
0	23936	6.53	515
0	23969	6.54	638
0	23998	6.55	644
0	24049	6.56	323
0	24074	6.57	746
0	24119	6.58	289
0	24150	6.59	371
0	24185	6.6	469
0	24214	6.61	283
0	24253	6.62	301
0	24292	6.63	826
0	24333	6.64	281
0	24368	6.65	930
0	24403	6.66	563
0	24442	6.67	297
0	24485	6.68	818
0	24514	6.69	567
0	24557	6.7	464
0	24590	6.71	354
0	24629	6.72	283
0	24660	6.73	690
0	24697	6.74	571
0	24738	6.75	445
0	24773	6.76	498
0	24810	6.77	431
0	24837	6.78	523
0	24874	6.79	213
0	24927	6.8	223
0	24968	6.81	408
0	24997	6.82	578
0	25042	6.83	886
0	25079	6.84	510
0	25110	6.85	300
0	25149	6.86	488
0	25186	6.87	766
0	25219	6.88	379
0	25254	6.89	448
0	25309	6.9	628
0	25330	6.91	755
0	25361	6.92	364
0	25402	6.93	327
0	25453	6.94	606
0	25496	6.95	299
0	25525	6.96	238
0	25560	6.97	179
0	25599	6.98	166
0	25646	6.99	234
0	25687	7	871
0	25722	7.01	336
0	25757	7.02	507
0	25808	7.03	551
0	25843	7.04	638
0	25866	7.05	841
0	25911	7.06	426
0	25950	7.07	771
0	25983	7.08	263
0	26024	7.09	735
0	26053	7.1	488
0	26084	7.11	984
0	26135	7.12	603
0	26162	7.13	576
0	26189	7.14	184
0	26224	7.15	383
0	26257	7.16	776
0	26284	7.17	396
0	26333	7.18	276
0	26370	7.19	609
0	26407	7.2	555
0	26430	7.21	614
0	26461	7.22	178
0	26500	7.23	377
0	26547	7.24	556
0	26588	7.25	437
0	26619	7.26	283
0	26660	7.27	160
0	26697	7.28	366
0	26738	7.29	423
0	26781	7.3	885
0	26820	7.31	359
0	26849	7.32	238
0	26884	7.33	468
0	26919	7.34	470
0	26952	7.35	897
0	26987	7.36	675
0	27022	7.37	666
0	27051	7.38	500
0	27080	7.39	186
0	27113	7.4	306
0	27144	7.41	586
0	27185	7.42	518
0	27226	7.43	519
0	27255	7.44	483
0	27290	7.45	321
0	27327	7.46	231
0	27360	7.47	322
0	27401	7.48	593
0	27430	7.49	482
0	27477	7.5	551
0	27496	7.51	526
0	27527	7.52	198
0	27562	7.53	531
0	27591	7.54	331
0	27620	7.55	365
0	27647	7.56	381
0	27680	7.57	310
0	27709	7.58	380
0	27740	7.59	304
0	27779	7.6	434
0	27822	7.61	426
0	27857	7.62	375
0	27906	7.63	603
0	27945	7.64	366
0	27982	7.65	868
0	28017	7.66	183
0	28054	7.67	569
0	28081	7.68	439
0	28106	7.69	397
0	28139	7.7	223
0	28176	7.71	225
0	28217	7.72	510
0	28260	7.73	306
0	28303	7.74	904
0	28350	7.75	642
0	28371	7.76	640
0	28404	7.77	381
0	28445	7.78	301
0	28472	7.79	193
0	28497	7.8	364
0	28530	7.81	396
0	28563	7.82	564
0	28602	7.83	321
0	28629	7.84	499
0	28662	7.85	366
0	28693	7.86	640
0	28730	7.87	394
0	28765	7.88	481
0	28810	7.89	353
0	28861	7.9	746
0	28902	7.91	907
0	28937	7.92	375
0	28976	7.93	346
0	29005	7.94	484
0	29034	7.95	449
0	29065	7.96	236
0	29102	7.97	358
0	29139	7.98	438
0	29174	7.99	531
0	29205	8	390
0	29234	8.01	291
0	29263	8.02	261
0	29288	8.03	305
0	29327	8.04	235
0	29354	8.05	419
0	29385	8.06	560
0	29408	8.07	165
0	29433	8.08	479
0	29484	8.09	251
0	29525	8.1	422
0	29566	8.11	666
0	29591	8.12	709
0	29622	8.13	291
0	29675	8.14	355
0	29714	8.15	702
0	29749	8.16	515
0	29788	8.17	404
0	29823	8.18	269
0	29860	8.19	658
0	29891	8.2	395
0	29906	8.21	365
0	29933	8.22	24
0	29970	8.23	182
0	30021	8.24	557
0	30058	8.25	621
0	30081	8.26	433
0	30104	8.27	624
0	30135	8.28	425
0	30188	8.29	295
0	30231	8.3	796
0	30268	8.31	565
0	30295	8.32	315
0	30320	8.33	232
0	30349	8.34	579
0	30386	8.35	375
0	30419	8.36	449
0	30448	8.37	462
0	30485	8.38	311
0	30514	8.39	237
0	30549	8.4	353
0	30586	8.41	580
0	30627	8.42	685
0	30666	8.43	568
0	30717	8.44	667
0	30754	8.45	500
0	30799	8.46	816
0	30830	8.47	594
0	30873	8.48	351
0	30912	8.49	585
0	30949	8.5	454
0	30978	8.51	436
0	31017	8.52	223
0	31060	8.53	342
0	31111	8.54	286
0	31140	8.55	1104
0	31171	8.56	310
0	31206	8.57	419
0	31259	8.58	451
0	31286	8.59	622
0	31315	8.6	373
0	31352	8.61	583
0	31385	8.62	517
0	31416	8.63	419
0	31443	8.64	285
0	31472	8.65	512
0	31505	8.66	277
0	31540	8.67	415
0	31589	8.68	507
0	31636	8.69	834
0	31663	8.7	549
0	31694	8.71	331
0	31727	8.72	368
0	31768	8.73	419
0	31807	8.74	479
0	31844	8.75	691
0	31869	8.76	407
0	31896	8.77	251
0	31929	8.78	285
0	31968	8.79	396
0	32017	8.8	430
0	32054	8.81	801
0	32099	8.82	549
0	32148	8.83	743
0	32183	8.84	483
0	32208	8.85	381
0	32243	8.86	587
0	32282	8.87	623
0	32319	8.88	561
0	32358	8.89	162
0	32389	8.9	247
0	32436	8.91	542
0	32473	8.92	416
0	32498	8.93	930
0	32533	8.94	421
0	32572	8.95	493
0	32609	8.96	635
0	32646	8.97	375
0	32673	8.98	511
0	32708	8.99	284
0	32749	9	578
0	32780	9.01	763
0	32813	9.02	293
0	32848	9.03	381
0	32897	9.04	199
0	32938	9.05	480
0	32977	9.06	287
0	33020	9.07	580
0	33055	9.08	773
0	33094	9.09	609
0	33129	9.1	844
0	33160	9.11	505
0	33189	9.12	414
0	33234	9.13	192
0	33263	9.14	405
0	33304	9.15	367
0	33341	9.16	576
0	33378	9.17	237
0	33407	9.18	393
0	33452	9.19	787
0	33489	9.2	638
0	33538	9.21	596
0	33575	9.22	415
0	33608	9.23	504
0	33641	9.24	507
0	33674	9.25	593
0	33713	9.26	596
0	33748	9.27	662
0	33781	9.28	430
0	33818	9.29	418
0	33853	9.3	612
0	33886	9.31	440
0	33919	9.32	232
0	33956	9.33	528
0	33991	9.34	469
0	34018	9.35	311
0	34063	9.36	409
0	34104	9.37	558
0	34135	9.38	473
0	34162	9.39	414
0	34199	9.4	225
0	34240	9.41	627
0	34275	9.42	356
0	34316	9.43	361
0	34361	9.44	568
0	34398	9.45	575
0	34441	9.46	192
0	34484	9.47	1103
0	34521	9.48	648
0	34560	9.49	636
0	34593	9.5	715
0	34632	9.51	514
0	34663	9.52	316
0	34698	9.53	431
0	34735	9.54	191
0	34770	9.55	207
0	34813	9.56	182
0	34856	9.57	142
0	34891	9.58	407
0	34922	9.59	281
0	34957	9.6	809
0	34990	9.61	466
0	35043	9.62	950
0	35084	9.63	906
0	35123	9.64	1118
0	35154	9.65	407
0	35195	9.66	689
0	35236	9.67	401
0	35281	9.68	509
0	35324	9.69	463
0	35363	9.7	559
0	35400	9.71	315
0	35435	9.72	693
0	35466	9.73	574
0	35497	9.74	352
0	35544	9.75	341
0	35577	9.76	429
0	35606	9.77	498
0	35649	9.78	197
0	35678	9.79	390
0	35721	9.8	332
0	35764	9.81	660
0	35803	9.82	449
0	35838	9.83	565
0	35889	9.84	560
0	35936	9.85	333
0	35969	9.86	494
0	35998	9.87	450
0	36031	9.88	259
0	36066	9.89	384
0	36095	9.9	619
0	36124	9.91	525
0	36161	9.92	295
0	36206	9.93	324
0	36243	9.94	636
0	36268	9.95	463
0	36299	9.96	398
0	36332	9.97	850
0	36375	9.98	315
0	36410	9.99	765
0	36439	10	408
1	42	0.01	0
1	83	0.02	9
1	118	0.03	5
1	149	0.04	8
1	188	0.05	6
1	227	0.06	8
1	270	0.07	1
1	323	0.08	5
1	372	0.09	8
1	423	0.1	7
1	462	0.11	2
1	503	0.12	6
1	530	0.13	7
1	571	0.14	7
1	600	0.15	6
1	633	0.16	5
1	670	0.17	8
1	709	0.18	7
1	742	0.19	7
1	777	0.2	4
1	814	0.21	6
1	849	0.22	7
1	876	0.23	8
1	917	0.24	5
1	958	0.25	8
1	995	0.26	7
1	1032	0.27	4
1	1061	0.28	7
1	1094	0.29	7
1	1127	0.3	7
1	1168	0.31	5
1	1205	0.32	7
1	1258	0.33	8
1	1279	0.34	7
1	1322	0.35	6
1	1357	0.36	5
1	1394	0.37	8
1	1443	0.38	7
1	1474	0.39	6
1	1523	0.4	7
1	1552	0.41	10
1	1591	0.42	6
1	1614	0.43	8
1	1641	0.44	5
1	1688	0.45	5
1	1729	0.46	9
1	1768	0.47	8
1	1791	0.48	9
1	1830	0.49	5
1	1859	0.5	6
1	1896	0.51	5
1	1929	0.52	5
1	1966	0.53	4
1	2017	0.54	4
1	2058	0.55	7
1	2091	0.56	10
1	2130	0.57	5
1	2169	0.58	7
1	2204	0.59	9
1	2247	0.6	7
1	2284	0.61	5
1	2319	0.62	7
1	2360	0.63	7
1	2395	0.64	8
1	2442	0.65	7
1	2477	0.66	10
1	2522	0.67	6
1	2557	0.68	8
1	2582	0.69	8
1	2609	0.7	5
1	2648	0.71	5
1	2671	0.72	4
1	2724	0.73	5
1	2763	0.74	9
1	2794	0.75	8
1	2815	0.76	3
1	2854	0.77	6
1	2895	0.78	8
1	2926	0.79	7
1	2965	0.8	6
1	3004	0.81	9
1	3041	0.82	6
1	3086	0.83	9
1	3109	0.84	8
1	3146	0.85	5
1	3183	0.86	8
1	3208	0.87	5
1	3261	0.88	5
1	3298	0.89	8
1	3333	0.9	7
1	3362	0.91	6
1	3379	0.92	8
1	3414	0.93	2
1	3447	0.94	9
1	3484	0.95	8
1	3513	0.96	7
1	3564	0.97	6
1	3621	0.98	8
1	3648	0.99	7
1	3677	1	7
1	3706	1.01	6
1	3751	1.02	2
1	3780	1.03	9
1	3821	1.04	6
1	3868	1.05	7
1	3889	1.06	3
1	3928	1.07	8
1	3967	1.08	7
1	4016	1.09	7
1	4049	1.1	5
1	4088	1.11	5
1	4123	1.12	5
1	4176	1.13	8
1	4207	1.14	7
1	4250	1.15	7
1	4279	1.16	6
1	4318	1.17	7
1	4357	1.18	7
1	4394	1.19	5
1	4423	1.2	7
1	4460	1.21	5
1	4487	1.22	9
1	4524	1.23	6
1	4561	1.24	8
1	4590	1.25	7
1	4641	1.26	7
1	4692	1.27	9
1	4731	1.28	6
1	4768	1.29	9
1	4813	1.3	6
1	4848	1.31	4
1	4897	1.32	5
1	4916	1.33	8
1	4939	1.34	6
1	4976	1.35	3
1	5027	1.36	8
1	5054	1.37	6
1	5095	1.38	5
1	5118	1.39	8
1	5153	1.4	5
1	5182	1.41	6
1	5219	1.42	5
1	5250	1.43	8
1	5279	1.44	7
1	5316	1.45	6
1	5365	1.46	5
1	5390	1.47	6
1	5431	1.48	3
1	5472	1.49	9
1	5509	1.5	9
1	5542	1.51	7
1	5575	1.52	8
1	5612	1.53	5
1	5647	1.54	8
1	5678	1.55	7
1	5725	1.56	5
1	5754	1.57	3
1	5799	1.58	5
1	5846	1.59	6
1	5889	1.6	6
1	5928	1.61	6
1	5969	1.62	4
1	6018	1.63	5
1	6049	1.64	9
1	6084	1.65	9
1	6117	1.66	6
1	6170	1.67	5
1	6203	1.68	1
1	6226	1.69	4
1	6271	1.7	4
1	6312	1.71	7
1	6367	1.72	6
1	6410	1.73	6
1	6445	1.74	8
1	6478	1.75	6
1	6517	1.76	7
1	6560	1.77	7
1	6599	1.78	8
1	6640	1.79	10
1	6669	1.8	7
1	6720	1.81	8
1	6753	1.82	4
1	6792	1.83	7
1	6827	1.84	5
1	6856	1.85	6
1	6909	1.86	6
1	6948	1.87	8
1	6991	1.88	5
1	7030	1.89	9
1	7067	1.9	9
1	7106	1.91	6
1	7135	1.92	7
1	7172	1.93	2
1	7209	1.94	6
1	7254	1.95	6
1	7297	1.96	9
1	7338	1.97	6
1	7367	1.98	7
1	7410	1.99	8
1	7443	2	10
1	7468	2.01	8
1	7507	2.02	6
1	7546	2.03	7
1	7577	2.04	5
1	7616	2.05	6
1	7657	2.06	9
1	7682	2.07	9
1	7711	2.08	6
1	7738	2.09	6
1	7767	2.1	4
1	7808	2.11	7
1	7835	2.12	8
1	7864	2.13	4
1	7903	2.14	6
1	7938	2.15	9
1	7973	2.16	5
1	8016	2.17	9
1	8037	2.18	6
1	8080	2.19	6
1	8115	2.2	7
1	8156	2.21	9
1	8195	2.22	7
1	8230	2.23	8
1	8265	2.24	6
1	8308	2.25	3
1	8341	2.26	7
1	8380	2.27	9
1	8409	2.28	10
1	8442	2.29	6
1	8477	2.3	6
1	8514	2.31	7
1	8565	2.32	5
1	8604	2.33	9
1	8633	2.34	8
1	8664	2.35	8
1	8715	2.36	6
1	8752	2.37	8
1	8787	2.38	3
1	8814	2.39	7
1	8855	2.4	5
1	8880	2.41	5
1	8917	2.42	4
1	8956	2.43	4
1	8995	2.44	8
1	9026	2.45	10
1	9073	2.46	6
1	9106	2.47	8
1	9125	2.48	7
1	9160	2.49	5
1	9191	2.5	8
1	9226	2.51	5
1	9263	2.52	5
1	9308	2.53	4
1	9339	2.54	9
1	9370	2.55	5
1	9403	2.56	4
1	9442	2.57	8
1	9471	2.58	8
1	9502	2.59	8
1	9541	2.6	7
1	9582	2.61	8
1	9621	2.62	7
1	9656	2.63	7
1	9685	2.64	9
1	9732	2.65	9
1	9771	2.66	5
1	9804	2.67	3
1	9833	2.68	5
1	9868	2.69	7
1	9897	2.7	6
1	9942	2.71	6
1	9969	2.72	7
1	10006	2.73	7
1	10051	2.74	8
1	10090	2.75	8
1	10123	2.76	6
1	10146	2.77	9
1	10191	2.78	4
1	10228	2.79	8
1	10259	2.8	7
1	10312	2.81	6
1	10351	2.82	6
1	10384	2.83	9
1	10425	2.84	8
1	10448	2.85	8
1	10485	2.86	5
1	10530	2.87	6
1	10557	2.88	6
1	10592	2.89	8
1	10615	2.9	8
1	10658	2.91	6
1	10699	2.92	6
1	10744	2.93	9
1	10783	2.94	6
1	10814	2.95	5
1	10849	2.96	4
1	10884	2.97	5
1	10921	2.98	8
1	10954	2.99	6
1	10983	3	7
1	11032	3.01	5
1	11067	3.02	3
1	11104	3.03	9
1	11149	3.04	7
1	11178	3.05	7
1	11211	3.06	3
1	11238	3.07	4
1	11271	3.08	2
1	11304	3.09	6
1	11337	3.1	7
1	11374	3.11	7
1	11395	3.12	5
1	11442	3.13	6
1	11487	3.14	4
1	11528	3.15	2
1	11555	3.16	2
1	11598	3.17	4
1	11629	3.18	3
1	11676	3.19	5
1	11725	3.2	4
1	11768	3.21	5
1	11805	3.22	2
1	11832	3.23	2
1	11883	3.24	4
1	11938	3.25	6
1	11969	3.26	4
1	12004	3.27	5
1	12039	3.28	3
1	12092	3.29	5
1	12117	3.3	2
1	12176	3.31	2
1	12229	3.32	1
1	12268	3.33	3
1	12303	3.34	3
1	12348	3.35	5
1	12387	3.36	7
1	12428	3.37	3
1	12463	3.38	4
1	12510	3.39	6
1	12541	3.4	3
1	12568	3.41	4
1	12599	3.42	6
1	12634	3.43	5
1	12667	3.44	6
1	12694	3.45	7
1	12719	3.46	7
1	12778	3.47	5
1	12803	3.48	10
1	12838	3.49	4
1	12873	3.5	8
1	12924	3.51	7
1	12955	3.52	6
1	12994	3.53	8
1	13023	3.54	5
1	13068	3.55	6
1	13101	3.56	7
1	13138	3.57	9
1	13171	3.58	4
1	13210	3.59	4
1	13241	3.6	4
1	13288	3.61	9
1	13327	3.62	2
1	13362	3.63	3
1	13399	3.64	6
1	13432	3.65	4
1	13461	3.66	6
1	13510	3.67	6
1	13537	3.68	7
1	13576	3.69	6
1	13619	3.7	6
1	13662	3.71	5
1	13703	3.72	7
1	13732	3.73	8
1	13777	3.74	8
1	13812	3.75	8
1	13857	3.76	8
1	13896	3.77	9
1	13929	3.78	1
1	13966	3.79	5
1	13999	3.8	7
1	14034	3.81	4
1	14079	3.82	9
1	14128	3.83	5
1	14173	3.84	6
1	14212	3.85	7
1	14245	3.86	8
1	14290	3.87	6
1	14331	3.88	4
1	14370	3.89	3
1	14407	3.9	5
1	14450	3.91	3
1	14497	3.92	10
1	14528	3.93	10
1	14557	3.94	7
1	14596	3.95	6
1	14637	3.96	4
1	14670	3.97	3
1	14723	3.98	3
1	14758	3.99	5
1	14785	4	7
1	14826	4.01	4
1	14863	4.02	9
1	14902	4.03	8
1	14935	4.04	8
1	14958	4.05	5
1	14995	4.06	5
1	15024	4.07	7
1	15051	4.08	7
1	15094	4.09	5
1	15123	4.1	6
1	15160	4.11	7
1	15195	4.12	8
1	15230	4.13	6
1	15267	4.14	7
1	15302	4.15	8
1	15335	4.16	7
1	15366	4.17	7
1	15415	4.18	5
1	15460	4.19	8
1	15511	4.2	7
1	15554	4.21	8
1	15585	4.22	5
1	15614	4.23	6
1	15647	4.24	9
1	15672	4.25	8
1	15709	4.26	6
1	15742	4.27	5
1	15787	4.28	9
1	15820	4.29	2
1	15853	4.3	5
1	15884	4.31	8
1	15927	4.32	6
1	15958	4.33	7
1	15989	4.34	8
1	16026	4.35	7
1	16065	4.36	3
1	16102	4.37	9
1	16141	4.38	7
1	16180	4.39	6
1	16227	4.4	6
1	16268	4.41	8
1	16299	4.42	8
1	16336	4.43	5
1	16367	4.44	8
1	16400	4.45	7
1	16427	4.46	6
1	16458	4.47	4
1	16491	4.48	4
1	16538	4.49	9
1	16575	4.5	7
1	16624	4.51	4
1	16663	4.52	4
1	16712	4.53	3
1	16745	4.54	3
1	16780	4.55	5
1	16835	4.56	3
1	16870	4.57	8
1	16903	4.58	6
1	16946	4.59	7
1	16967	4.6	5
1	17002	4.61	9
1	17031	4.62	6
1	17066	4.63	8
1	17097	4.64	6
1	17136	4.65	7
1	17171	4.66	5
1	17204	4.67	8
1	17235	4.68	6
1	17276	4.69	6
1	17305	4.7	8
1	17340	4.71	6
1	17373	4.72	8
1	17410	4.73	7
1	17445	4.74	5
1	17474	4.75	3
1	17515	4.76	7
1	17558	4.77	7
1	17593	4.78	7
1	17628	4.79	9
1	17669	4.8	5
1	17708	4.81	4
1	17749	4.82	9
1	17788	4.83	8
1	17817	4.84	7
1	17852	4.85	6
1	17895	4.86	7
1	17930	4.87	8
1	17969	4.88	7
1	18014	4.89	6
1	18049	4.9	6
1	18086	4.91	7
1	18115	4.92	5
1	18144	4.93	8
1	18179	4.94	5
1	18218	4.95	7
1	18247	4.96	5
1	18272	4.97	6
1	18307	4.98	6
1	18350	4.99	6
1	18387	5	6
1	18428	5.01	7
1	18469	5.02	5
1	18496	5.03	1
1	18527	5.04	5
1	18572	5.05	7
1	18597	5.06	6
1	18634	5.07	3
1	18669	5.08	7
1	18712	5.09	6
1	18749	5.1	7
1	18784	5.11	6
1	18821	5.12	5
1	18862	5.13	4
1	18887	5.14	9
1	18934	5.15	4
1	18975	5.16	5
1	19006	5.17	8
1	19033	5.18	6
1	19070	5.19	3
1	19107	5.2	9
1	19136	5.21	9
1	19167	5.22	6
1	19204	5.23	5
1	19235	5.24	4
1	19264	5.25	6
1	19307	5.26	8
1	19352	5.27	8
1	19389	5.28	7
1	19420	5.29	8
1	19457	5.3	6
1	19496	5.31	7
1	19531	5.32	7
1	19564	5.33	6
1	19595	5.34	9
1	19636	5.35	7
1	19665	5.36	9
1	19706	5.37	4
1	19739	5.38	2
1	19770	5.39	6
1	19819	5.4	7
1	19862	5.41	7
1	19901	5.42	8
1	19932	5.43	4
1	19969	5.44	5
1	20006	5.45	4
1	20053	5.46	5
1	20088	5.47	6
1	20111	5.48	5
1	20146	5.49	8
1	20193	5.5	8
1	20236	5.51	10
1	20273	5.52	7
1	20318	5.53	10
1	20349	5.54	5
1	20388	5.55	5
1	20427	5.56	8
1	20454	5.57	7
1	20497	5.58	7
1	20534	5.59	9
1	20569	5.6	6
1	20608	5.61	7
1	20637	5.62	6
1	20664	5.63	4
1	20707	5.64	7
1	20738	5.65	8
1	20779	5.66	8
1	20822	5.67	8
1	20857	5.68	8
1	20880	5.69	3
1	20925	5.7	3
1	20958	5.71	5
1	20993	5.72	7
1	21036	5.73	6
1	21067	5.74	9
1	21092	5.75	3
1	21151	5.76	6
1	21178	5.77	3
1	21203	5.78	3
1	21248	5.79	5
1	21273	5.8	7
1	21320	5.81	6
1	21361	5.82	5
1	21390	5.83	8
1	21433	5.84	7
1	21468	5.85	6
1	21497	5.86	7
1	21520	5.87	2
1	21571	5.88	4
1	21608	5.89	6
1	21633	5.9	4
1	21664	5.91	5
1	21693	5.92	3
1	21730	5.93	6
1	21771	5.94	7
1	21810	5.95	9
1	21843	5.96	9
1	21872	5.97	6
1	21905	5.98	5
1	21936	5.99	9
1	21967	6	6
1	22004	6.01	4
1	22047	6.02	8
1	22082	6.03	7
1	22127	6.04	8
1	22158	6.05	7
1	22189	6.06	7
1	22228	6.07	6
1	22269	6.08	7
1	22306	6.09	7
1	22351	6.1	8
1	22382	6.11	10
1	22413	6.12	6
1	22460	6.13	5
1	22497	6.14	8
1	22536	6.15	4
1	22573	6.16	3
1	22604	6.17	2
1	22645	6.18	4
1	22674	6.19	3
1	22711	6.2	2
1	22740	6.21	6
1	22787	6.22	6
1	22830	6.23	1
1	22871	6.24	5
1	22910	6.25	8
1	22945	6.26	6
1	22986	6.27	7
1	23019	6.28	8
1	23060	6.29	7
1	23095	6.3	9
1	23134	6.31	3
1	23157	6.32	8
1	23192	6.33	5
1	23213	6.34	7
1	23250	6.35	4
1	23279	6.36	7
1	23320	6.37	5
1	23349	6.38	8
1	23392	6.39	6
1	23423	6.4	7
1	23470	6.41	5
1	23519	6.42	8
1	23552	6.43	6
1	23587	6.44	4
1	23624	6.45	6
1	23661	6.46	6
1	23692	6.47	4
1	23729	6.48	5
1	23770	6.49	3
1	23811	6.5	8
1	23854	6.51	8
1	23899	6.52	7
1	23936	6.53	8
1	23969	6.54	7
1	23998	6.55	8
1	24049	6.56	6
1	24074	6.57	10
1	24119	6.58	6
1	24150	6.59	6
1	24185	6.6	7
1	24214	6.61	3
1	24253	6.62	6
1	24292	6.63	7
1	24333	6.64	3
1	24368	6.65	9
1	24403	6.66	7
1	24442	6.67	4
1	24485	6.68	8
1	24514	6.69	5
1	24557	6.7	6
1	24590	6.71	9
1	24629	6.72	6
1	24660	6.73	7
1	24697	6.74	6
1	24738	6.75	6
1	24773	6.76	6
1	24810	6.77	5
1	24837	6.78	8
1	24874	6.79	4
1	24927	6.8	6
1	24968	6.81	6
1	24997	6.82	7
1	25042	6.83	7
1	25079	6.84	5
1	25110	6.85	3
1	25149	6.86	8
1	25186	6.87	7
1	25219	6.88	6
1	25254	6.89	8
1	25309	6.9	7
1	25330	6.91	8
1	25361	6.92	4
1	25402	6.93	6
1	25453	6.94	9
1	25496	6.95	5
1	25525	6.96	2
1	25560	6.97	3
1	25599	6.98	2
1	25646	6.99	3
1	25687	7	6
1	25722	7.01	2
1	25757	7.02	2
1	25808	7.03	5
1	25843	7.04	3
1	25866	7.05	6
1	25911	7.06	4
1	25950	7.07	6
1	25983	7.08	3
1	26024	7.09	5
1	26053	7.1	6
1	26084	7.11	7
1	26135	7.12	6
1	26162	7.13	7
1	26189	7.14	4
1	26224	7.15	5
1	26257	7.16	6
1	26284	7.17	8
1	26333	7.18	5
1	26370	7.19	8
1	26407	7.2	8
1	26430	7.21	7
1	26461	7.22	6
1	26500	7.23	7
1	26547	7.24	8
1	26588	7.25	7
1	26619	7.26	5
1	26660	7.27	2
1	26697	7.28	6
1	26738	7.29	6
1	26781	7.3	7
1	26820	7.31	4
1	26849	7.32	3
1	26884	7.33	5
1	26919	7.34	4
1	26952	7.35	9
1	26987	7.36	7
1	27022	7.37	7
1	27051	7.38	7
1	27080	7.39	5
1	27113	7.4	5
1	27144	7.41	7
1	27185	7.42	7
1	27226	7.43	8
1	27255	7.44	8
1	27290	7.45	5
1	27327	7.46	4
1	27360	7.47	5
1	27401	7.48	9
1	27430	7.49	8
1	27477	7.5	6
1	27496	7.51	7
1	27527	7.52	2
1	27562	7.53	8
1	27591	7.54	5
1	27620	7.55	5
1	27647	7.56	6
1	27680	7.57	5
1	27709	7.58	6
1	27740	7.59	6
1	27779	7.6	6
1	27822	7.61	8
1	27857	7.62	6
1	27906	7.63	6
1	27945	7.64	4
1	27982	7.65	8
1	28017	7.66	6
1	28054	7.67	7
1	28081	7.68	7
1	28106	7.69	6
1	28139	7.7	6
1	28176	7.71	6
1	28217	7.72	9
1	28260	7.73	4
1	28303	7.74	9
1	28350	7.75	7
1	28371	7.76	7
1	28404	7.77	5
1	28445	7.78	4
1	28472	7.79	4
1	28497	7.8	5
1	28530	7.81	5
1	28563	7.82	5
1	28602	7.83	7
1	28629	7.84	8
1	28662	7.85	4
1	28693	7.86	9
1	28730	7.87	8
1	28765	7.88	8
1	28810	7.89	7
1	28861	7.9	8
1	28902	7.91	8
1	28937	7.92	9
1	28976	7.93	5
1	29005	7.94	8
1	29034	7.95	7
1	29065	7.96	6
1	29102	7.97	7
1	29139	7.98	6
1	29174	7.99	8
1	29205	8	7
1	29234	8.01	7
1	29263	8.02	6
1	29288	8.03	7
1	29327	8.04	5
1	29354	8.05	6
1	29385	8.06	5
1	29408	8.07	5
1	29433	8.08	4
1	29484	8.09	4
1	29525	8.1	5
1	29566	8.11	5
1	29591	8.12	8
1	29622	8.13	4
1	29675	8.14	7
1	29714	8.15	8
1	29749	8.16	10
1	29788	8.17	6
1	29823	8.18	4
1	29860	8.19	8
1	29891	8.2	8
1	29906	8.21	7
1	29933	8.22	2
1	29970	8.23	3
1	30021	8.24	8
1	30058	8.25	7
1	30081	8.26	6
1	30104	8.27	7
1	30135	8.28	6
1	30188	8.29	7
1	30231	8.3	10
1	30268	8.31	8
1	30295	8.32	5
1	30320	8.33	7
1	30349	8.34	4
1	30386	8.35	6
1	30419	8.36	5
1	30448	8.37	6
1	30485	8.38	8
1	30514	8.39	3
1	30549	8.4	5
1	30586	8.41	7
1	30627	8.42	8
1	30666	8.43	9
1	30717	8.44	7
1	30754	8.45	6
1	30799	8.46	9
1	30830	8.47	9
1	30873	8.48	7
1	30912	8.49	9
1	30949	8.5	6
1	30978	8.51	8
1	31017	8.52	6
1	31060	8.53	6
1	31111	8.54	6
1	31140	8.55	10
1	31171	8.56	5
1	31206	8.57	7
1	31259	8.58	8
1	31286	8.59	4
1	31315	8.6	8
1	31352	8.61	7
1	31385	8.62	8
1	31416	8.63	7
1	31443	8.64	6
1	31472	8.65	7
1	31505	8.66	9
1	31540	8.67	8
1	31589	8.68	7
1	31636	8.69	8
1	31663	8.7	9
1	31694	8.71	5
1	31727	8.72	7
1	31768	8.73	8
1	31807	8.74	8
1	31844	8.75	8
1	31869	8.76	8
1	31896	8.77	6
1	31929	8.78	7
1	31968	8.79	9
1	32017	8.8	8
1	32054	8.81	9
1	32099	8.82	4
1	32148	8.83	8
1	32183	8.84	6
1	32208	8.85	4
1	32243	8.86	7
1	32282	8.87	7
1	32319	8.88	8
1	32358	8.89	3
1	32389	8.9	4
1	32436	8.91	6
1	32473	8.92	7
1	32498	8.93	8
1	32533	8.94	5
1	32572	8.95	7
1	32609	8.96	6
1	32646	8.97	8
1	32673	8.98	7
1	32708	8.99	6
1	32749	9	5
1	32780	9.01	8
1	32813	9.02	5
1	32848	9.03	8
1	32897	9.04	6
1	32938	9.05	6
1	32977	9.06	4
1	33020	9.07	7
1	33055	9.08	6
1	33094	9.09	7
1	33129	9.1	8
1	33160	9.11	6
1	33189	9.12	5
1	33234	9.13	6
1	33263	9.14	7
1	33304	9.15	7
1	33341	9.16	5
1	33378	9.17	2
1	33407	9.18	5
1	33452	9.19	9
1	33489	9.2	7
1	33538	9.21	8
1	33575	9.22	8
1	33608	9.23	6
1	33641	9.24	7
1	33674	9.25	8
1	33713	9.26	7
1	33748	9.27	6
1	33781	9.28	8
1	33818	9.29	8
1	33853	9.3	7
1	33886	9.31	6
1	33919	9.32	7
1	33956	9.33	8
1	33991	9.34	6
1	34018	9.35	5
1	34063	9.36	5
1	34104	9.37	8
1	34135	9.38	7
1	34162	9.39	7
1	34199	9.4	3
1	34240	9.41	8
1	34275	9.42	7
1	34316	9.43	5
1	34361	9.44	9
1	34398	9.45	8
1	34441	9.46	4
1	34484	9.47	9
1	34521	9.48	8
1	34560	9.49	5
1	34593	9.5	8
1	34632	9.51	6
1	34663	9.52	7
1	34698	9.53	7
1	34735	9.54	4
1	34770	9.55	4
1	34813	9.56	2
1	34856	9.57	1
1	34891	9.58	3
1	34922	9.59	3
1	34957	9.6	3
1	34990	9.61	5
1	35043	9.62	4
1	35084	9.63	8
1	35123	9.64	7
1	35154	9.65	6
1	35195	9.66	9
1	35236	9.67	8
1	35281	9.68	8
1	35324	9.69	8
1	35363	9.7	7
1	35400	9.71	5
1	35435	9.72	8
1	35466	9.73	6
1	35497	9.74	6
1	35544	9.75	6
1	35577	9.76	7
1	35606	9.77	6
1	35649	9.78	3
1	35678	9.79	5
1	35721	9.8	4
1	35764	9.81	8
1	35803	9.82	5
1	35838	9.83	6
1	35889	9.84	7
1	35936	9.85	3
1	35969	9.86	7
1	35998	9.87	4
1	36031	9.88	6
1	36066	9.89	6
1	36095	9.9	2
1	36124	9.91	6
1	36161	9.92	6
1	36206	9.93	6
1	36243	9.94	8
1	36268	9.95	6
1	36299	9.96	2
1	36332	9.97	8
1	36375	9.98	5
1	36410	9.99	9
1	36439	10	7
2	42	0.01	0
2	83	0.02	90
2	118	0.03	12
2	149	0.04	115
2	188	0.05	0
2	227	0.06	0
2	270	0.07	0
2	323	0.08	165
2	372	0.09	89
2	423	0.1	40
2	462	0.11	0
2	503	0.12	250
2	530	0.13	0
2	571	0.14	0
2	600	0.15	13
2	633	0.16	0
2	670	0.17	0
2	709	0.18	1
2	742	0.19	108
2	777	0.2	0
2	814	0.21	96
2	849	0.22	2
2	876	0.23	0
2	917	0.24	0
2	958	0.25	80
2	995	0.26	0
2	1032	0.27	42
2	1061	0.28	54
2	1094	0.29	36
2	1127	0.3	0
2	1168	0.31	63
2	1205	0.32	48
2	1258	0.33	27
2	1279	0.34	53
2	1322	0.35	59
2	1357	0.36	75
2	1394	0.37	214
2	1443	0.38	45
2	1474	0.39	77
2	1523	0.4	29
2	1552	0.41	64
2	1591	0.42	0
2	1614	0.43	152
2	1641	0.44	35
2	1688	0.45	24
2	1729	0.46	57
2	1768	0.47	2
2	1791	0.48	56
2	1830	0.49	0
2	1859	0.5	144
2	1896	0.51	75
2	1929	0.52	0
2	1966	0.53	44
2	2017	0.54	42
2	2058	0.55	153
2	2091	0.56	13
2	2130	0.57	0
2	2169	0.58	171
2	2204	0.59	22
2	2247	0.6	55
2	2284	0.61	0
2	2319	0.62	220
2	2360	0.63	0
2	2395	0.64	0
2	2442	0.65	0
2	2477	0.66	10
2	2522	0.67	45
2	2557	0.68	118
2	2582	0.69	18
2	2609	0.7	0
2	2648	0.71	0
2	2671	0.72	0
2	2724	0.73	0
2	2763	0.74	118
2	2794	0.75	108
2	2815	0.76	196
2	2854	0.77	27
2	2895	0.78	74
2	2926	0.79	158
2	2965	0.8	0
2	3004	0.81	40
2	3041	0.82	0
2	3086	0.83	0
2	3109	0.84	211
2	3146	0.85	0
2	3183	0.86	70
2	3208	0.87	174
2	3261	0.88	129
2	3298	0.89	89
2	3333	0.9	0
2	3362	0.91	114
2	3379	0.92	0
2	3414	0.93	0
2	3447	0.94	7
2	3484	0.95	54
2	3513	0.96	110
2	3564	0.97	67
2	3621	0.98	96
2	3648	0.99	60
2	3677	1	0
2	3706	1.01	40
2	3751	1.02	0
2	3780	1.03	178
2	3821	1.04	101
2	3868	1.05	65
2	3889	1.06	18
2	3928	1.07	0
2	3967	1.08	122
2	4016	1.09	2
2	4049	1.1	0
2	4088	1.11	0
2	4123	1.12	128
2	4176	1.13	160
2	4207	1.14	83
2	4250	1.15	0
2	4279	1.16	101
2	4318	1.17	46
2	4357	1.18	0
2	4394	1.19	0
2	4423	1.2	115
2	4460	1.21	0
2	4487	1.22	73
2	4524	1.23	0
2	4561	1.24	23
2	4590	1.25	63
2	4641	1.26	60
2	4692	1.27	51
2	4731	1.28	79
2	4768	1.29	42
2	4813	1.3	73
2	4848	1.31	0
2	4897	1.32	63
2	4916	1.33	97
2	4939	1.34	0
2	4976	1.35	0
2	5027	1.36	17
2	5054	1.37	0
2	5095	1.38	36
2	5118	1.39	14
2	5153	1.4	0
2	5182	1.41	30
2	5219	1.42	55
2	5250	1.43	153
2	5279	1.44	0
2	5316	1.45	0
2	5365	1.46	57
2	5390	1.47	0
2	5431	1.48	63
2	5472	1.49	0
2	5509	1.5	42
2	5542	1.51	63
2	5575	1.52	0
2	5612	1.53	33
2	5647	1.54	146
2	5678	1.55	107
2	5725	1.56	57
2	5754	1.57	0
2	5799	1.58	0
2	5846	1.59	0
2	5889	1.6	123
2	5928	1.61	0
2	5969	1.62	0
2	6018	1.63	105
2	6049	1.64	95
2	6084	1.65	117
2	6117	1.66	65
2	6170	1.67	0
2	6203	1.68	132
2	6226	1.69	0
2	6271	1.7	0
2	6312	1.71	200
2	6367	1.72	0
2	6410	1.73	160
2	6445	1.74	0
2	6478	1.75	0
2	6517	1.76	18
2	6560	1.77	0
2	6599	1.78	0
2	6640	1.79	98
2	6669	1.8	78
2	6720	1.81	68
2	6753	1.82	0
2	6792	1.83	9
2	6827	1.84	61
2	6856	1.85	0
2	6909	1.86	176
2	6948	1.87	37
2	6991	1.88	0
2	7030	1.89	17
2	7067	1.9	112
2	7106	1.91	78
2	7135	1.92	51
2	7172	1.93	0
2	7209	1.94	185
2	7254	1.95	0
2	7297	1.96	0
2	7338	1.97	0
2	7367	1.98	113
2	7410	1.99	23
2	7443	2	41
2	7468	2.01	62
2	7507	2.02	0
2	7546	2.03	0
2	7577	2.04	66
2	7616	2.05	60
2	7657	2.06	0
2	7682	2.07	116
2	7711	2.08	0
2	7738	2.09	2
2	7767	2.1	0
2	7808	2.11	13
2	7835	2.12	30
2	7864	2.13	0
2	7903	2.14	55
2	7938	2.15	51
2	7973	2.16	21
2	8016	2.17	67
2	8037	2.18	0
2	8080	2.19	145
2	8115	2.2	80
2	8156	2.21	63
2	8195	2.22	76
2	8230	2.23	0
2	8265	2.24	73
2	8308	2.25	0
2	8341	2.26	126
2	8380	2.27	69
2	8409	2.28	87
2	8442	2.29	38
2	8477	2.3	0
2	8514	2.31	66
2	8565	2.32	57
2	8604	2.33	131
2	8633	2.34	64
2	8664	2.35	4
2	8715	2.36	0
2	8752	2.37	70
2	8787	2.38	0
2	8814	2.39	67
2	8855	2.4	98
2	8880	2.41	1
2	8917	2.42	0
2	8956	2.43	87
2	8995	2.44	0
2	9026	2.45	153
2	9073	2.46	0
2	9106	2.47	17
2	9125	2.48	88
2	9160	2.49	73
2	9191	2.5	61
2	9226	2.51	0
2	9263	2.52	38
2	9308	2.53	79
2	9339	2.54	42
2	9370	2.55	18
2	9403	2.56	0
2	9442	2.57	112
2	9471	2.58	25
2	9502	2.59	16
2	9541	2.6	0
2	9582	2.61	75
2	9621	2.62	0
2	9656	2.63	20
2	9685	2.64	18
2	9732	2.65	67
2	9771	2.66	26
2	9804	2.67	0
2	9833	2.68	176
2	9868	2.69	14
2	9897	2.7	0
2	9942	2.71	25
2	9969	2.72	100
2	10006	2.73	20
2	10051	2.74	79
2	10090	2.75	0
2	10123	2.76	0
2	10146	2.77	37
2	10191	2.78	0
2	10228	2.79	54
2	10259	2.8	56
2	10312	2.81	0
2	10351	2.82	35
2	10384	2.83	26
2	10425	2.84	20
2	10448	2.85	0
2	10485	2.86	0
2	10530	2.87	101
2	10557	2.88	67
2	10592	2.89	192
2	10615	2.9	0
2	10658	2.91	44
2	10699	2.92	0
2	10744	2.93	64
2	10783	2.94	33
2	10814	2.95	0
2	10849	2.96	0
2	10884	2.97	109
2	10921	2.98	53
2	10954	2.99	23
2	10983	3	0
2	11032	3.01	0
2	11067	3.02	75
2	11104	3.03	0
2	11149	3.04	145
2	11178	3.05	23
2	11211	3.06	0
2	11238	3.07	0
2	11271	3.08	43
2	11304	3.09	0
2	11337	3.1	87
2	11374	3.11	46
2	11395	3.12	0
2	11442	3.13	0
2	11487	3.14	59
2	11528	3.15	0
2	11555	3.16	0
2	11598	3.17	126
2	11629	3.18	48
2	11676	3.19	0
2	11725	3.2	294
2	11768	3.21	54
2	11805	3.22	0
2	11832	3.23	0
2	11883	3.24	0
2	11938	3.25	50
2	11969	3.26	58
2	12004	3.27	0
2	12039	3.28	70
2	12092	3.29	0
2	12117	3.3	0
2	12176	3.31	676
2	12229	3.32	0
2	12268	3.33	0
2	12303	3.34	53
2	12348	3.35	0
2	12387	3.36	216
2	12428	3.37	0
2	12463	3.38	0
2	12510	3.39	0
2	12541	3.4	0
2	12568	3.41	293
2	12599	3.42	0
2	12634	3.43	0
2	12667	3.44	0
2	12694	3.45	0
2	12719	3.46	106
2	12778	3.47	0
2	12803	3.48	32
2	12838	3.49	0
2	12873	3.5	0
2	12924	3.51	0
2	12955	3.52	0
2	12994	3.53	38
2	13023	3.54	60
2	13068	3.55	104
2	13101	3.56	0
2	13138	3.57	12
2	13171	3.58	0
2	13210	3.59	0
2	13241	3.6	136
2	13288	3.61	49
2	13327	3.62	0
2	13362	3.63	118
2	13399	3.64	0
2	13432	3.65	400
2	13461	3.66	4
2	13510	3.67	0
2	13537	3.68	79
2	13576	3.69	0
2	13619	3.7	0
2	13662	3.71	215
2	13703	3.72	48
2	13732	3.73	120
2	13777	3.74	68
2	13812	3.75	102
2	13857	3.76	36
2	13896	3.77	84
2	13929	3.78	0
2	13966	3.79	25
2	13999	3.8	89
2	14034	3.81	1
2	14079	3.82	8
2	14128	3.83	0
2	14173	3.84	0
2	14212	3.85	77
2	14245	3.86	190
2	14290	3.87	2
2	14331	3.88	0
2	14370	3.89	0
2	14407	3.9	220
2	14450	3.91	0
2	14497	3.92	122
2	14528	3.93	108
2	14557	3.94	59
2	14596	3.95	67
2	14637	3.96	109
2	14670	3.97	0
2	14723	3.98	0
2	14758	3.99	60
2	14785	4	0
2	14826	4.01	0
2	14863	4.02	288
2	14902	4.03	44
2	14935	4.04	107
2	14958	4.05	0
2	14995	4.06	52
2	15024	4.07	75
2	15051	4.08	5
2	15094	4.09	75
2	15123	4.1	77
2	15160	4.11	71
2	15195	4.12	30
2	15230	4.13	0
2	15267	4.14	18
2	15302	4.15	52
2	15335	4.16	92
2	15366	4.17	17
2	15415	4.18	67
2	15460	4.19	5
2	15511	4.2	0
2	15554	4.21	31
2	15585	4.22	0
2	15614	4.23	0
2	15647	4.24	260
2	15672	4.25	118
2	15709	4.26	39
2	15742	4.27	81
2	15787	4.28	20
2	15820	4.29	0
2	15853	4.3	0
2	15884	4.31	151
2	15927	4.32	25
2	15958	4.33	178
2	15989	4.34	74
2	16026	4.35	0
2	16065	4.36	0
2	16102	4.37	73
2	16141	4.38	98
2	16180	4.39	0
2	16227	4.4	21
2	16268	4.41	22
2	16299	4.42	130
2	16336	4.43	65
2	16367	4.44	37
2	16400	4.45	43
2	16427	4.46	54
2	16458	4.47	0
2	16491	4.48	48
2	16538	4.49	4
2	16575	4.5	35
2	16624	4.51	0
2	16663	4.52	0
2	16712	4.53	0
2	16745	4.54	0
2	16780	4.55	56
2	16835	4.56	57
2	16870	4.57	22
2	16903	4.58	0
2	16946	4.59	84
2	16967	4.6	0
2	17002	4.61	139
2	17031	4.62	92
2	17066	4.63	109
2	17097	4.64	105
2	17136	4.65	94
2	17171	4.66	0
2	17204	4.67	0
2	17235	4.68	0
2	17276	4.69	0
2	17305	4.7	0
2	17340	4.71	50
2	17373	4.72	67
2	17410	4.73	20
2	17445	4.74	0
2	17474	4.75	0
2	17515	4.76	185
2	17558	4.77	0
2	17593	4.78	0
2	17628	4.79	235
2	17669	4.8	94
2	17708	4.81	9
2	17749	4.82	124
2	17788	4.83	134
2	17817	4.84	0
2	17852	4.85	0
2	17895	4.86	62
2	17930	4.87	26
2	17969	4.88	27
2	18014	4.89	0
2	18049	4.9	0
2	18086	4.91	175
2	18115	4.92	66
2	18144	4.93	51
2	18179	4.94	44
2	18218	4.95	26
2	18247	4.96	0
2	18272	4.97	127
2	18307	4.98	62
2	18350	4.99	35
2	18387	5	38
2	18428	5.01	142
2	18469	5.02	0
2	18496	5.03	0
2	18527	5.04	0
2	18572	5.05	301
2	18597	5.06	49
2	18634	5.07	0
2	18669	5.08	40
2	18712	5.09	0
2	18749	5.1	46
2	18784	5.11	70
2	18821	5.12	0
2	18862	5.13	0
2	18887	5.14	46
2	18934	5.15	0
2	18975	5.16	0
2	19006	5.17	47
2	19033	5.18	0
2	19070	5.19	16
2	19107	5.2	49
2	19136	5.21	70
2	19167	5.22	103
2	19204	5.23	11
2	19235	5.24	0
2	19264	5.25	85
2	19307	5.26	7
2	19352	5.27	54
2	19389	5.28	98
2	19420	5.29	75
2	19457	5.3	0
2	19496	5.31	0
2	19531	5.32	119
2	19564	5.33	106
2	19595	5.34	27
2	19636	5.35	48
2	19665	5.36	216
2	19706	5.37	63
2	19739	5.38	0
2	19770	5.39	0
2	19819	5.4	198
2	19862	5.41	14
2	19901	5.42	57
2	19932	5.43	101
2	19969	5.44	0
2	20006	5.45	0
2	20053	5.46	0
2	20088	5.47	303
2	20111	5.48	39
2	20146	5.49	48
2	20193	5.5	24
2	20236	5.51	123
2	20273	5.52	0
2	20318	5.53	2
2	20349	5.54	0
2	20388	5.55	0
2	20427	5.56	0
2	20454	5.57	218
2	20497	5.58	0
2	20534	5.59	81
2	20569	5.6	73
2	20608	5.61	42
2	20637	5.62	0
2	20664	5.63	0
2	20707	5.64	0
2	20738	5.65	89
2	20779	5.66	120
2	20822	5.67	47
2	20857	5.68	32
2	20880	5.69	71
2	20925	5.7	0
2	20958	5.71	0
2	20993	5.72	174
2	21036	5.73	20
2	21067	5.74	70
2	21092	5.75	0
2	21151	5.76	97
2	21178	5.77	0
2	21203	5.78	0
2	21248	5.79	183
2	21273	5.8	0
2	21320	5.81	264
2	21361	5.82	169
2	21390	5.83	94
2	21433	5.84	0
2	21468	5.85	98
2	21497	5.86	0
2	21520	5.87	0
2	21571	5.88	108
2	21608	5.89	87
2	21633	5.9	0
2	21664	5.91	17
2	21693	5.92	94
2	21730	5.93	27
2	21771	5.94	0
2	21810	5.95	171
2	21843	5.96	60
2	21872	5.97	58
2	21905	5.98	23
2	21936	5.99	31
2	21967	6	0
2	22004	6.01	0
2	22047	6.02	0
2	22082	6.03	0
2	22127	6.04	38
2	22158	6.05	0
2	22189	6.06	0
2	22228	6.07	0
2	22269	6.08	38
2	22306	6.09	0
2	22351	6.1	16
2	22382	6.11	126
2	22413	6.12	45
2	22460	6.13	44
2	22497	6.14	0
2	22536	6.15	0
2	22573	6.16	0
2	22604	6.17	180
2	22645	6.18	0
2	22674	6.19	68
2	22711	6.2	0
2	22740	6.21	0
2	22787	6.22	130
2	22830	6.23	0
2	22871	6.24	87
2	22910	6.25	49
2	22945	6.26	0
2	22986	6.27	123
2	23019	6.28	171
2	23060	6.29	65
2	23095	6.3	15
2	23134	6.31	104
2	23157	6.32	0
2	23192	6.33	32
2	23213	6.34	148
2	23250	6.35	66
2	23279	6.36	113
2	23320	6.37	0
2	23349	6.38	75
2	23392	6.39	0
2	23423	6.4	26
2	23470	6.41	161
2	23519	6.42	110
2	23552	6.43	13
2	23587	6.44	83
2	23624	6.45	0
2	23661	6.46	68
2	23692	6.47	0
2	23729	6.48	0
2	23770	6.49	0
2	23811	6.5	246
2	23854	6.51	114
2	23899	6.52	44
2	23936	6.53	18
2	23969	6.54	10
2	23998	6.55	44
2	24049	6.56	0
2	24074	6.57	119
2	24119	6.58	49
2	24150	6.59	0
2	24185	6.6	53
2	24214	6.61	0
2	24253	6.62	68
2	24292	6.63	170
2	24333	6.64	42
2	24368	6.65	68
2	24403	6.66	0
2	24442	6.67	69
2	24485	6.68	158
2	24514	6.69	0
2	24557	6.7	143
2	24590	6.71	0
2	24629	6.72	47
2	24660	6.73	25
2	24697	6.74	37
2	24738	6.75	0
2	24773	6.76	0
2	24810	6.77	137
2	24837	6.78	34
2	24874	6.79	0
2	24927	6.8	14
2	24968	6.81	13
2	24997	6.82	0
2	25042	6.83	254
2	25079	6.84	0
2	25110	6.85	64
2	25149	6.86	0
2	25186	6.87	0
2	25219	6.88	70
2	25254	6.89	0
2	25309	6.9	0
2	25330	6.91	23
2	25361	6.92	0
2	25402	6.93	67
2	25453	6.94	163
2	25496	6.95	0
2	25525	6.96	213
2	25560	6.97	0
2	25599	6.98	0
2	25646	6.99	0
2	25687	7	0
2	25722	7.01	170
2	25757	7.02	0
2	25808	7.03	0
2	25843	7.04	183
2	25866	7.05	0
2	25911	7.06	73
2	25950	7.07	151
2	25983	7.08	0
2	26024	7.09	46
2	26053	7.1	0
2	26084	7.11	187
2	26135	7.12	6
2	26162	7.13	55
2	26189	7.14	13
2	26224	7.15	0
2	26257	7.16	0
2	26284	7.17	10
2	26333	7.18	0
2	26370	7.19	54
2	26407	7.2	109
2	26430	7.21	0
2	26461	7.22	14
2	26500	7.23	34
2	26547	7.24	69
2	26588	7.25	49
2	26619	7.26	0
2	26660	7.27	0
2	26697	7.28	28
2	26738	7.29	0
2	26781	7.3	65
2	26820	7.31	5
2	26849	7.32	0
2	26884	7.33	106
2	26919	7.34	80
2	26952	7.35	20
2	26987	7.36	103
2	27022	7.37	47
2	27051	7.38	0
2	27080	7.39	37
2	27113	7.4	0
2	27144	7.41	0
2	27185	7.42	98
2	27226	7.43	81
2	27255	7.44	26
2	27290	7.45	65
2	27327	7.46	0
2	27360	7.47	0
2	27401	7.48	57
2	27430	7.49	118
2	27477	7.5	9
2	27496	7.51	68
2	27527	7.52	0
2	27562	7.53	54
2	27591	7.54	101
2	27620	7.55	61
2	27647	7.56	10
2	27680	7.57	51
2	27709	7.58	57
2	27740	7.59	31
2	27779	7.6	0
2	27822	7.61	0
2	27857	7.62	74
2	27906	7.63	81
2	27945	7.64	185
2	27982	7.65	80
2	28017	7.66	8
2	28054	7.67	43
2	28081	7.68	58
2	28106	7.69	0
2	28139	7.7	0
2	28176	7.71	38
2	28217	7.72	43
2	28260	7.73	75
2	28303	7.74	39
2	28350	7.75	50
2	28371	7.76	0
2	28404	7.77	72
2	28445	7.78	0
2	28472	7.79	94
2	28497	7.8	22
2	28530	7.81	0
2	28563	7.82	0
2	28602	7.83	86
2	28629	7.84	49
2	28662	7.85	24
2	28693	7.86	58
2	28730	7.87	74
2	28765	7.88	96
2	28810	7.89	0
2	28861	7.9	101
2	28902	7.91	0
2	28937	7.92	141
2	28976	7.93	0
2	29005	7.94	12
2	29034	7.95	51
2	29065	7.96	32
2	29102	7.97	34
2	29139	7.98	56
2	29174	7.99	83
2	29205	8	0
2	29234	8.01	0
2	29263	8.02	44
2	29288	8.03	92
2	29327	8.04	25
2	29354	8.05	0
2	29385	8.06	159
2	29408	8.07	76
2	29433	8.08	0
2	29484	8.09	35
2	29525	8.1	0
2	29566	8.11	148
2	29591	8.12	39
2	29622	8.13	115
2	29675	8.14	50
2	29714	8.15	152
2	29749	8.16	12
2	29788	8.17	0
2	29823	8.18	0
2	29860	8.19	51
2	29891	8.2	30
2	29906	8.21	76
2	29933	8.22	0
2	29970	8.23	73
2	30021	8.24	0
2	30058	8.25	0
2	30081	8.26	0
2	30104	8.27	254
2	30135	8.28	0
2	30188	8.29	72
2	30231	8.3	120
2	30268	8.31	0
2	30295	8.32	0
2	30320	8.33	32
2	30349	8.34	0
2	30386	8.35	22
2	30419	8.36	0
2	30448	8.37	220
2	30485	8.38	0
2	30514	8.39	0
2	30549	8.4	0
2	30586	8.41	12
2	30627	8.42	49
2	30666	8.43	37
2	30717	8.44	0
2	30754	8.45	142
2	30799	8.46	55
2	30830	8.47	23
2	30873	8.48	38
2	30912	8.49	9
2	30949	8.5	52
2	30978	8.51	81
2	31017	8.52	34
2	31060	8.53	107
2	31111	8.54	76
2	31140	8.55	98
2	31171	8.56	0
2	31206	8.57	53
2	31259	8.58	70
2	31286	8.59	157
2	31315	8.6	79
2	31352	8.61	43
2	31385	8.62	21
2	31416	8.63	72
2	31443	8.64	45
2	31472	8.65	94
2	31505	8.66	20
2	31540	8.67	13
2	31589	8.68	52
2	31636	8.69	65
2	31663	8.7	0
2	31694	8.71	0
2	31727	8.72	0
2	31768	8.73	67
2	31807	8.74	61
2	31844	8.75	46
2	31869	8.76	44
2	31896	8.77	114
2	31929	8.78	47
2	31968	8.79	46
2	32017	8.8	45
2	32054	8.81	101
2	32099	8.82	0
2	32148	8.83	170
2	32183	8.84	0
2	32208	8.85	70
2	32243	8.86	0
2	32282	8.87	106
2	32319	8.88	15
2	32358	8.89	0
2	32389	8.9	10
2	32436	8.91	0
2	32473	8.92	0
2	32498	8.93	255
2	32533	8.94	51
2	32572	8.95	32
2	32609	8.96	0
2	32646	8.97	8
2	32673	8.98	87
2	32708	8.99	71
2	32749	9	177
2	32780	9.01	336
2	32813	9.02	40
2	32848	9.03	51
2	32897	9.04	0
2	32938	9.05	33
2	32977	9.06	0
2	33020	9.07	53
2	33055	9.08	177
2	33094	9.09	0
2	33129	9.1	70
2	33160	9.11	0
2	33189	9.12	0
2	33234	9.13	29
2	33263	9.14	86
2	33304	9.15	33
2	33341	9.16	0
2	33378	9.17	0
2	33407	9.18	45
2	33452	9.19	0
2	33489	9.2	201
2	33538	9.21	134
2	33575	9.22	39
2	33608	9.23	112
2	33641	9.24	62
2	33674	9.25	31
2	33713	9.26	19
2	33748	9.27	0
2	33781	9.28	64
2	33818	9.29	0
2	33853	9.3	124
2	33886	9.31	119
2	33919	9.32	0
2	33956	9.33	65
2	33991	9.34	74
2	34018	9.35	167
2	34063	9.36	39
2	34104	9.37	42
2	34135	9.38	52
2	34162	9.39	129
2	34199	9.4	0
2	34240	9.41	30
2	34275	9.42	35
2	34316	9.43	114
2	34361	9.44	0
2	34398	9.45	0
2	34441	9.46	42
2	34484	9.47	43
2	34521	9.48	0
2	34560	9.49	179
2	34593	9.5	0
2	34632	9.51	0
2	34663	9.52	0
2	34698	9.53	0
2	34735	9.54	0
2	34770	9.55	77
2	34813	9.56	0
2	34856	9.57	0
2	34891	9.58	0
2	34922	9.59	0
2	34957	9.6	118
2	34990	9.61	51
2	35043	9.62	0
2	35084	9.63	216
2	35123	9.64	521
2	35154	9.65	0
2	35195	9.66	35
2	35236	9.67	63
2	35281	9.68	41
2	35324	9.69	140
2	35363	9.7	0
2	35400	9.71	70
2	35435	9.72	69
2	35466	9.73	0
2	35497	9.74	40
2	35544	9.75	0
2	35577	9.76	38
2	35606	9.77	0
2	35649	9.78	0
2	35678	9.79	0
2	35721	9.8	0
2	35764	9.81	170
2	35803	9.82	38
2	35838	9.83	33
2	35889	9.84	15
2	35936	9.85	0
2	35969	9.86	33
2	35998	9.87	184
2	36031	9.88	84
2	36066	9.89	131
2	36095	9.9	0
2	36124	9.91	133
2	36161	9.92	53
2	36206	9.93	0
2	36243	9.94	12
2	36268	9.95	0
2	36299	9.96	13
2	36332	9.97	35
2	36375	9.98	0
2	36410	9.99	11
2	36439	10	173
3	42	0.01	0
3	83	0.02	150
3	118	0.03	0
3	149	0.04	75
3	188	0.05	0
3	227	0.06	41
3	270	0.07	0
3	323	0.08	71
3	372	0.09	1
3	423	0.1	216
3	462	0.11	0
3	503	0.12	14
3	530	0.13	48
3	571	0.14	120
3	600	0.15	0
3	633	0.16	0
3	670	0.17	51
3	709	0.18	186
3	742	0.19	0
3	777	0.2	20
3	814	0.21	39
3	849	0.22	99
3	876	0.23	32
3	917	0.24	0
3	958	0.25	0
3	995	0.26	0
3	1032	0.27	440
3	1061	0.28	114
3	1094	0.29	0
3	1127	0.3	0
3	1168	0.31	43
3	1205	0.32	0
3	1258	0.33	22
3	1279	0.34	0
3	1322	0.35	129
3	1357	0.36	0
3	1394	0.37	7
3	1443	0.38	71
3	1474	0.39	0
3	1523	0.4	37
3	1552	0.41	45
3	1591	0.42	114
3	1614	0.43	31
3	1641	0.44	0
3	1688	0.45	131
3	1729	0.46	25
3	1768	0.47	0
3	1791	0.48	58
3	1830	0.49	0
3	1859	0.5	92
3	1896	0.51	72
3	1929	0.52	41
3	1966	0.53	0
3	2017	0.54	0
3	2058	0.55	0
3	2091	0.56	61
3	2130	0.57	188
3	2169	0.58	0
3	2204	0.59	51
3	2247	0.6	27
3	2284	0.61	0
3	2319	0.62	129
3	2360	0.63	77
3	2395	0.64	55
3	2442	0.65	15
3	2477	0.66	20
3	2522	0.67	60
3	2557	0.68	91
3	2582	0.69	90
3	2609	0.7	0
3	2648	0.71	66
3	2671	0.72	0
3	2724	0.73	0
3	2763	0.74	155
3	2794	0.75	58
3	2815	0.76	0
3	2854	0.77	34
3	2895	0.78	14
3	2926	0.79	111
3	2965	0.8	0
3	3004	0.81	6
3	3041	0.82	42
3	3086	0.83	56
3	3109	0.84	67
3	3146	0.85	104
3	3183	0.86	0
3	3208	0.87	58
3	3261	0.88	37
3	3298	0.89	47
3	3333	0.9	66
3	3362	0.91	26
3	3379	0.92	94
3	3414	0.93	34
3	3447	0.94	74
3	3484	0.95	98
3	3513	0.96	75
3	3564	0.97	0
3	3621	0.98	50
3	3648	0.99	89
3	3677	1	0
3	3706	1.01	0
3	3751	1.02	0
3	3780	1.03	91
3	3821	1.04	0
3	3868	1.05	48
3	3889	1.06	32
3	3928	1.07	55
3	3967	1.08	67
3	4016	1.09	0
3	4049	1.1	0
3	4088	1.11	0
3	4123	1.12	2
3	4176	1.13	50
3	4207	1.14	0
3	4250	1.15	246
3	4279	1.16	0
3	4318	1.17	42
3	4357	1.18	61
3	4394	1.19	86
3	4423	1.2	18
3	4460	1.21	57
3	4487	1.22	1
3	4524	1.23	46
3	4561	1.24	111
3	4590	1.25	136
3	4641	1.26	14
3	4692	1.27	91
3	4731	1.28	38
3	4768	1.29	100
3	4813	1.3	94
3	4848	1.31	0
3	4897	1.32	278
3	4916	1.33	0
3	4939	1.34	11
3	4976	1.35	0
3	5027	1.36	112
3	5054	1.37	0
3	5095	1.38	42
3	5118	1.39	120
3	5153	1.4	0
3	5182	1.41	50
3	5219	1.42	0
3	5250	1.43	26
3	5279	1.44	66
3	5316	1.45	0
3	5365	1.46	0
3	5390	1.47	24
3	5431	1.48	0
3	5472	1.49	187
3	5509	1.5	0
3	5542	1.51	0
3	5575	1.52	59
3	5612	1.53	0
3	5647	1.54	42
3	5678	1.55	0
3	5725	1.56	0
3	5754	1.57	0
3	5799	1.58	57
3	5846	1.59	0
3	5889	1.6	115
3	5928	1.61	90
3	5969	1.62	0
3	6018	1.63	0
3	6049	1.64	108
3	6084	1.65	63
3	6117	1.66	105
3	6170	1.67	64
3	6203	1.68	0
3	6226	1.69	133
3	6271	1.7	0
3	6312	1.71	107
3	6367	1.72	0
3	6410	1.73	131
3	6445	1.74	134
3	6478	1.75	16
3	6517	1.76	98
3	6560	1.77	66
3	6599	1.78	175
3	6640	1.79	37
3	6669	1.8	0
3	6720	1.81	126
3	6753	1.82	0
3	6792	1.83	17
3	6827	1.84	0
3	6856	1.85	316
3	6909	1.86	0
3	6948	1.87	0
3	6991	1.88	75
3	7030	1.89	6
3	7067	1.9	38
3	7106	1.91	21
3	7135	1.92	0
3	7172	1.93	0
3	7209	1.94	0
3	7254	1.95	190
3	7297	1.96	152
3	7338	1.97	8
3	7367	1.98	178
3	7410	1.99	55
3	7443	2	199
3	7468	2.01	170
3	7507	2.02	45
3	7546	2.03	0
3	7577	2.04	130
3	7616	2.05	0
3	7657	2.06	71
3	7682	2.07	37
3	7711	2.08	0
3	7738	2.09	0
3	7767	2.1	0
3	7808	2.11	62
3	7835	2.12	0
3	7864	2.13	46
3	7903	2.14	93
3	7938	2.15	36
3	7973	2.16	1
3	8016	2.17	196
3	8037	2.18	44
3	8080	2.19	53
3	8115	2.2	0
3	8156	2.21	0
3	8195	2.22	33
3	8230	2.23	61
3	8265	2.24	0
3	8308	2.25	0
3	8341	2.26	135
3	8380	2.27	37
3	8409	2.28	48
3	8442	2.29	96
3	8477	2.3	6
3	8514	2.31	0
3	8565	2.32	0
3	8604	2.33	0
3	8633	2.34	0
3	8664	2.35	65
3	8715	2.36	7
3	8752	2.37	75
3	8787	2.38	0
3	8814	2.39	67
3	8855	2.4	0
3	8880	2.41	123
3	8917	2.42	0
3	8956	2.43	0
3	8995	2.44	120
3	9026	2.45	17
3	9073	2.46	9
3	9106	2.47	146
3	9125	2.48	29
3	9160	2.49	0
3	9191	2.5	68
3	9226	2.51	1
3	9263	2.52	133
3	9308	2.53	0
3	9339	2.54	256
3	9370	2.55	0
3	9403	2.56	191
3	9442	2.57	18
3	9471	2.58	75
3	9502	2.59	0
3	9541	2.6	0
3	9582	2.61	2
3	9621	2.62	50
3	9656	2.63	0
3	9685	2.64	42
3	9732	2.65	38
3	9771	2.66	88
3	9804	2.67	0
3	9833	2.68	39
3	9868	2.69	1
3	9897	2.7	14
3	9942	2.71	0
3	9969	2.72	129
3	10006	2.73	117
3	10051	2.74	35
3	10090	2.75	10
3	10123	2.76	0
3	10146	2.77	26
3	10191	2.78	0
3	10228	2.79	61
3	10259	2.8	60
3	10312	2.81	59
3	10351	2.82	74
3	10384	2.83	24
3	10425	2.84	0
3	10448	2.85	0
3	10485	2.86	26
3	10530	2.87	0
3	10557	2.88	70
3	10592	2.89	173
3	10615	2.9	132
3	10658	2.91	0
3	10699	2.92	122
3	10744	2.93	19
3	10783	2.94	0
3	10814	2.95	0
3	10849	2.96	0
3	10884	2.97	140
3	10921	2.98	160
3	10954	2.99	0
3	10983	3	193
3	11032	3.01	72
3	11067	3.02	0
3	11104	3.03	78
3	11149	3.04	43
3	11178	3.05	48
3	11211	3.06	0
3	11238	3.07	0
3	11271	3.08	0
3	11304	3.09	150
3	11337	3.1	0
3	11374	3.11	57
3	11395	3.12	18
3	11442	3.13	0
3	11487	3.14	61
3	11528	3.15	0
3	11555	3.16	0
3	11598	3.17	0
3	11629	3.18	0
3	11676	3.19	255
3	11725	3.2	0
3	11768	3.21	0
3	11805	3.22	342
3	11832	3.23	0
3	11883	3.24	0
3	11938	3.25	0
3	11969	3.26	146
3	12004	3.27	487
3	12039	3.28	15
3	12092	3.29	0
3	12117	3.3	0
3	12176	3.31	72
3	12229	3.32	0
3	12268	3.33	0
3	12303	3.34	0
3	12348	3.35	472
3	12387	3.36	138
3	12428	3.37	0
3	12463	3.38	0
3	12510	3.39	82
3	12541	3.4	0
3	12568	3.41	177
3	12599	3.42	0
3	12634	3.43	34
3	12667	3.44	74
3	12694	3.45	31
3	12719	3.46	0
3	12778	3.47	0
3	12803	3.48	15
3	12838	3.49	0
3	12873	3.5	120
3	12924	3.51	59
3	12955	3.52	30
3	12994	3.53	42
3	13023	3.54	0
3	13068	3.55	74
3	13101	3.56	96
3	13138	3.57	0
3	13171	3.58	0
3	13210	3.59	32
3	13241	3.6	0
3	13288	3.61	17
3	13327	3.62	0
3	13362	3.63	28
3	13399	3.64	0
3	13432	3.65	14
3	13461	3.66	0
3	13510	3.67	30
3	13537	3.68	219
3	13576	3.69	71
3	13619	3.7	0
3	13662	3.71	270
3	13703	3.72	70
3	13732	3.73	37
3	13777	3.74	73
3	13812	3.75	3
3	13857	3.76	42
3	13896	3.77	44
3	13929	3.78	0
3	13966	3.79	0
3	13999	3.8	0
3	14034	3.81	179
3	14079	3.82	0
3	14128	3.83	49
3	14173	3.84	40
3	14212	3.85	56
3	14245	3.86	66
3	14290	3.87	0
3	14331	3.88	0
3	14370	3.89	0
3	14407	3.9	61
3	14450	3.91	0
3	14497	3.92	70
3	14528	3.93	233
3	14557	3.94	0
3	14596	3.95	50
3	14637	3.96	5
3	14670	3.97	0
3	14723	3.98	0
3	14758	3.99	20
3	14785	4	24
3	14826	4.01	0
3	14863	4.02	174
3	14902	4.03	30
3	14935	4.04	56
3	14958	4.05	104
3	14995	4.06	146
3	15024	4.07	20
3	15051	4.08	27
3	15094	4.09	109
3	15123	4.1	0
3	15160	4.11	54
3	15195	4.12	5
3	15230	4.13	13
3	15267	4.14	78
3	15302	4.15	75
3	15335	4.16	76
3	15366	4.17	81
3	15415	4.18	0
3	15460	4.19	175
3	15511	4.2	0
3	15554	4.21	0
3	15585	4.22	0
3	15614	4.23	101
3	15647	4.24	8
3	15672	4.25	18
3	15709	4.26	0
3	15742	4.27	0
3	15787	4.28	24
3	15820	4.29	88
3	15853	4.3	6
3	15884	4.31	0
3	15927	4.32	0
3	15958	4.33	40
3	15989	4.34	35
3	16026	4.35	61
3	16065	4.36	70
3	16102	4.37	72
3	16141	4.38	41
3	16180	4.39	0
3	16227	4.4	0
3	16268	4.41	54
3	16299	4.42	108
3	16336	4.43	0
3	16367	4.44	62
3	16400	4.45	38
3	16427	4.46	0
3	16458	4.47	0
3	16491	4.48	98
3	16538	4.49	75
3	16575	4.5	9
3	16624	4.51	0
3	16663	4.52	6
3	16712	4.53	34
3	16745	4.54	0
3	16780	4.55	0
3	16835	4.56	0
3	16870	4.57	113
3	16903	4.58	92
3	16946	4.59	18
3	16967	4.6	60
3	17002	4.61	75
3	17031	4.62	15
3	17066	4.63	0
3	17097	4.64	68
3	17136	4.65	57
3	17171	4.66	0
3	17204	4.67	22
3	17235	4.68	216
3	17276	4.69	5
3	17305	4.7	58
3	17340	4.71	273
3	17373	4.72	1
3	17410	4.73	0
3	17445	4.74	0
3	17474	4.75	0
3	17515	4.76	41
3	17558	4.77	0
3	17593	4.78	10
3	17628	4.79	122
3	17669	4.8	75
3	17708	4.81	0
3	17749	4.82	19
3	17788	4.83	0
3	17817	4.84	224
3	17852	4.85	107
3	17895	4.86	0
3	17930	4.87	45
3	17969	4.88	6
3	18014	4.89	66
3	18049	4.9	0
3	18086	4.91	74
3	18115	4.92	19
3	18144	4.93	75
3	18179	4.94	61
3	18218	4.95	0
3	18247	4.96	0
3	18272	4.97	243
3	18307	4.98	0
3	18350	4.99	0
3	18387	5	157
3	18428	5.01	36
3	18469	5.02	55
3	18496	5.03	0
3	18527	5.04	7
3	18572	5.05	99
3	18597	5.06	149
3	18634	5.07	0
3	18669	5.08	41
3	18712	5.09	195
3	18749	5.1	60
3	18784	5.11	0
3	18821	5.12	0
3	18862	5.13	0
3	18887	5.14	9
3	18934	5.15	66
3	18975	5.16	0
3	19006	5.17	143
3	19033	5.18	0
3	19070	5.19	0
3	19107	5.2	53
3	19136	5.21	109
3	19167	5.22	0
3	19204	5.23	137
3	19235	5.24	0
3	19264	5.25	87
3	19307	5.26	17
3	19352	5.27	150
3	19389	5.28	79
3	19420	5.29	16
3	19457	5.3	0
3	19496	5.31	2
3	19531	5.32	0
3	19564	5.33	73
3	19595	5.34	28
3	19636	5.35	43
3	19665	5.36	31
3	19706	5.37	0
3	19739	5.38	175
3	19770	5.39	0
3	19819	5.4	9
3	19862	5.41	55
3	19901	5.42	200
3	19932	5.43	11
3	19969	5.44	0
3	20006	5.45	0
3	20053	5.46	0
3	20088	5.47	0
3	20111	5.48	133
3	20146	5.49	74
3	20193	5.5	20
3	20236	5.51	9
3	20273	5.52	0
3	20318	5.53	4
3	20349	5.54	0
3	20388	5.55	44
3	20427	5.56	33
3	20454	5.57	59
3	20497	5.58	0
3	20534	5.59	173
3	20569	5.6	0
3	20608	5.61	71
3	20637	5.62	7
3	20664	5.63	0
3	20707	5.64	19
3	20738	5.65	40
3	20779	5.66	202
3	20822	5.67	0
3	20857	5.68	61
3	20880	5.69	0
3	20925	5.7	13
3	20958	5.71	0
3	20993	5.72	53
3	21036	5.73	46
3	21067	5.74	129
3	21092	5.75	0
3	21151	5.76	23
3	21178	5.77	0
3	21203	5.78	0
3	21248	5.79	0
3	21273	5.8	162
3	21320	5.81	0
3	21361	5.82	0
3	21390	5.83	43
3	21433	5.84	35
3	21468	5.85	36
3	21497	5.86	36
3	21520	5.87	0
3	21571	5.88	0
3	21608	5.89	212
3	21633	5.9	0
3	21664	5.91	70
3	21693	5.92	0
3	21730	5.93	53
3	21771	5.94	0
3	21810	5.95	49
3	21843	5.96	113
3	21872	5.97	44
3	21905	5.98	30
3	21936	5.99	0
3	21967	6	80
3	22004	6.01	0
3	22047	6.02	0
3	22082	6.03	44
3	22127	6.04	35
3	22158	6.05	119
3	22189	6.06	0
3	22228	6.07	0
3	22269	6.08	0
3	22306	6.09	12
3	22351	6.1	0
3	22382	6.11	20
3	22413	6.12	79
3	22460	6.13	0
3	22497	6.14	167
3	22536	6.15	0
3	22573	6.16	0
3	22604	6.17	0
3	22645	6.18	0
3	22674	6.19	0
3	22711	6.2	391
3	22740	6.21	0
3	22787	6.22	19
3	22830	6.23	0
3	22871	6.24	74
3	22910	6.25	216
3	22945	6.26	0
3	22986	6.27	90
3	23019	6.28	31
3	23060	6.29	39
3	23095	6.3	62
3	23134	6.31	0
3	23157	6.32	67
3	23192	6.33	25
3	23213	6.34	0
3	23250	6.35	14
3	23279	6.36	69
3	23320	6.37	2
3	23349	6.38	51
3	23392	6.39	0
3	23423	6.4	0
3	23470	6.41	56
3	23519	6.42	65
3	23552	6.43	151
3	23587	6.44	59
3	23624	6.45	0
3	23661	6.46	18
3	23692	6.47	67
3	23729	6.48	0
3	23770	6.49	0
3	23811	6.5	123
3	23854	6.51	97
3	23899	6.52	0
3	23936	6.53	60
3	23969	6.54	159
3	23998	6.55	64
3	24049	6.56	0
3	24074	6.57	132
3	24119	6.58	29
3	24150	6.59	15
3	24185	6.6	0
3	24214	6.61	0
3	24253	6.62	32
3	24292	6.63	77
3	24333	6.64	79
3	24368	6.65	153
3	24403	6.66	0
3	24442	6.67	0
3	24485	6.68	32
3	24514	6.69	150
3	24557	6.7	25
3	24590	6.71	84
3	24629	6.72	65
3	24660	6.73	107
3	24697	6.74	200
3	24738	6.75	121
3	24773	6.76	95
3	24810	6.77	165
3	24837	6.78	126
3	24874	6.79	0
3	24927	6.8	16
3	24968	6.81	0
3	24997	6.82	0
3	25042	6.83	135
3	25079	6.84	0
3	25110	6.85	107
3	25149	6.86	63
3	25186	6.87	0
3	25219	6.88	0
3	25254	6.89	36
3	25309	6.9	126
3	25330	6.91	0
3	25361	6.92	86
3	25402	6.93	0
3	25453	6.94	59
3	25496	6.95	0
3	25525	6.96	25
3	25560	6.97	0
3	25599	6.98	0
3	25646	6.99	0
3	25687	7	0
3	25722	7.01	166
3	25757	7.02	0
3	25808	7.03	0
3	25843	7.04	352
3	25866	7.05	0
3	25911	7.06	0
3	25950	7.07	41
3	25983	7.08	0
3	26024	7.09	0
3	26053	7.1	196
3	26084	7.11	70
3	26135	7.12	70
3	26162	7.13	56
3	26189	7.14	0
3	26224	7.15	65
3	26257	7.16	0
3	26284	7.17	5
3	26333	7.18	91
3	26370	7.19	50
3	26407	7.2	95
3	26430	7.21	1
3	26461	7.22	10
3	26500	7.23	33
3	26547	7.24	0
3	26588	7.25	0
3	26619	7.26	2
3	26660	7.27	0
3	26697	7.28	0
3	26738	7.29	42
3	26781	7.3	84
3	26820	7.31	13
3	26849	7.32	0
3	26884	7.33	184
3	26919	7.34	0
3	26952	7.35	65
3	26987	7.36	0
3	27022	7.37	75
3	27051	7.38	0
3	27080	7.39	0
3	27113	7.4	137
3	27144	7.41	12
3	27185	7.42	57
3	27226	7.43	25
3	27255	7.44	0
3	27290	7.45	0
3	27327	7.46	40
3	27360	7.47	0
3	27401	7.48	30
3	27430	7.49	50
3	27477	7.5	68
3	27496	7.51	25
3	27527	7.52	0
3	27562	7.53	82
3	27591	7.54	0
3	27620	7.55	9
3	27647	7.56	0
3	27680	7.57	0
3	27709	7.58	24
3	27740	7.59	19
3	27779	7.6	106
3	27822	7.61	84
3	27857	7.62	0
3	27906	7.63	0
3	27945	7.64	0
3	27982	7.65	62
3	28017	7.66	0
3	28054	7.67	110
3	28081	7.68	45
3	28106	7.69	0
3	28139	7.7	54
3	28176	7.71	2
3	28217	7.72	88
3	28260	7.73	0
3	28303	7.74	180
3	28350	7.75	119
3	28371	7.76	71
3	28404	7.77	0
3	28445	7.78	33
3	28472	7.79	14
3	28497	7.8	64
3	28530	7.81	15
3	28563	7.82	242
3	28602	7.83	20
3	28629	7.84	98
3	28662	7.85	0
3	28693	7.86	62
3	28730	7.87	54
3	28765	7.88	0
3	28810	7.89	13
3	28861	7.9	55
3	28902	7.91	0
3	28937	7.92	0
3	28976	7.93	129
3	29005	7.94	33
3	29034	7.95	0
3	29065	7.96	57
3	29102	7.97	0
3	29139	7.98	71
3	29174	7.99	138
3	29205	8	60
3	29234	8.01	18
3	29263	8.02	5
3	29288	8.03	15
3	29327	8.04	0
3	29354	8.05	155
3	29385	8.06	0
3	29408	8.07	16
3	29433	8.08	110
3	29484	8.09	0
3	29525	8.1	0
3	29566	8.11	158
3	29591	8.12	113
3	29622	8.13	0
3	29675	8.14	0
3	29714	8.15	0
3	29749	8.16	18
3	29788	8.17	37
3	29823	8.18	0
3	29860	8.19	84
3	29891	8.2	45
3	29906	8.21	73
3	29933	8.22	9
3	29970	8.23	70
3	30021	8.24	51
3	30058	8.25	0
3	30081	8.26	0
3	30104	8.27	0
3	30135	8.28	129
3	30188	8.29	44
3	30231	8.3	48
3	30268	8.31	1
3	30295	8.32	58
3	30320	8.33	0
3	30349	8.34	309
3	30386	8.35	0
3	30419	8.36	0
3	30448	8.37	64
3	30485	8.38	70
3	30514	8.39	0
3	30549	8.4	134
3	30586	8.41	0
3	30627	8.42	77
3	30666	8.43	0
3	30717	8.44	28
3	30754	8.45	24
3	30799	8.46	52
3	30830	8.47	204
3	30873	8.48	122
3	30912	8.49	61
3	30949	8.5	172
3	30978	8.51	0
3	31017	8.52	0
3	31060	8.53	0
3	31111	8.54	31
3	31140	8.55	109
3	31171	8.56	153
3	31206	8.57	0
3	31259	8.58	0
3	31286	8.59	0
3	31315	8.6	24
3	31352	8.61	0
3	31385	8.62	59
3	31416	8.63	0
3	31443	8.64	0
3	31472	8.65	107
3	31505	8.66	58
3	31540	8.67	0
3	31589	8.68	0
3	31636	8.69	149
3	31663	8.7	48
3	31694	8.71	103
3	31727	8.72	69
3	31768	8.73	0
3	31807	8.74	0
3	31844	8.75	67
3	31869	8.76	6
3	31896	8.77	0
3	31929	8.78	15
3	31968	8.79	44
3	32017	8.8	24
3	32054	8.81	16
3	32099	8.82	0
3	32148	8.83	75
3	32183	8.84	0
3	32208	8.85	176
3	32243	8.86	44
3	32282	8.87	128
3	32319	8.88	81
3	32358	8.89	0
3	32389	8.9	0
3	32436	8.91	163
3	32473	8.92	57
3	32498	8.93	19
3	32533	8.94	165
3	32572	8.95	3
3	32609	8.96	85
3	32646	8.97	11
3	32673	8.98	34
3	32708	8.99	8
3	32749	9	0
3	32780	9.01	0
3	32813	9.02	0
3	32848	9.03	0
3	32897	9.04	99
3	32938	9.05	0
3	32977	9.06	0
3	33020	9.07	132
3	33055	9.08	0
3	33094	9.09	37
3	33129	9.1	23
3	33160	9.11	72
3	33189	9.12	67
3	33234	9.13	0
3	33263	9.14	0
3	33304	9.15	0
3	33341	9.16	190
3	33378	9.17	0
3	33407	9.18	229
3	33452	9.19	76
3	33489	9.2	17
3	33538	9.21	0
3	33575	9.22	22
3	33608	9.23	95
3	33641	9.24	0
3	33674	9.25	52
3	33713	9.26	0
3	33748	9.27	0
3	33781	9.28	69
3	33818	9.29	29
3	33853	9.3	0
3	33886	9.31	0
3	33919	9.32	7
3	33956	9.33	24
3	33991	9.34	0
3	34018	9.35	43
3	34063	9.36	48
3	34104	9.37	73
3	34135	9.38	0
3	34162	9.39	31
3	34199	9.4	0
3	34240	9.41	54
3	34275	9.42	49
3	34316	9.43	117
3	34361	9.44	113
3	34398	9.45	72
3	34441	9.46	0
3	34484	9.47	0
3	34521	9.48	186
3	34560	9.49	199
3	34593	9.5	25
3	34632	9.51	149
3	34663	9.52	39
3	34698	9.53	106
3	34735	9.54	0
3	34770	9.55	0
3	34813	9.56	137
3	34856	9.57	0
3	34891	9.58	0
3	34922	9.59	0
3	34957	9.6	0
3	34990	9.61	123
3	35043	9.62	71
3	35084	9.63	0
3	35123	9.64	159
3	35154	9.65	37
3	35195	9.66	282
3	35236	9.67	0
3	35281	9.68	117
3	35324	9.69	21
3	35363	9.7	0
3	35400	9.71	0
3	35435	9.72	117
3	35466	9.73	51
3	35497	9.74	136
3	35544	9.75	66
3	35577	9.76	54
3	35606	9.77	80
3	35649	9.78	0
3	35678	9.79	81
3	35721	9.8	0
3	35764	9.81	83
3	35803	9.82	133
3	35838	9.83	0
3	35889	9.84	0
3	35936	9.85	0
3	35969	9.86	0
3	35998	9.87	0
3	36031	9.88	61
3	36066	9.89	73
3	36095	9.9	0
3	36124	9.91	0
3	36161	9.92	96
3	36206	9.93	40
3	36243	9.94	0
3	36268	9.95	0
3	36299	9.96	385
3	36332	9.97	56
3	36375	9.98	0
3	36410	9.99	262
3	36439	10	11
4	42	0.01	0
4	83	0.02	199
4	118	0.03	18
4	149	0.04	39
4	188	0.05	91
4	227	0.06	12
4	270	0.07	0
4	323	0.08	0
4	372	0.09	88
4	423	0.1	101
4	462	0.11	0
4	503	0.12	0
4	530	0.13	221
4	571	0.14	0
4	600	0.15	8
4	633	0.16	0
4	670	0.17	20
4	709	0.18	0
4	742	0.19	0
4	777	0.2	267
4	814	0.21	0
4	849	0.22	161
4	876	0.23	101
4	917	0.24	90
4	958	0.25	138
4	995	0.26	3
4	1032	0.27	37
4	1061	0.28	34
4	1094	0.29	0
4	1127	0.3	103
4	1168	0.31	0
4	1205	0.32	128
4	1258	0.33	38
4	1279	0.34	2
4	1322	0.35	35
4	1357	0.36	0
4	1394	0.37	136
4	1443	0.38	76
4	1474	0.39	93
4	1523	0.4	0
4	1552	0.41	151
4	1591	0.42	109
4	1614	0.43	43
4	1641	0.44	15
4	1688	0.45	0
4	1729	0.46	29
4	1768	0.47	90
4	1791	0.48	66
4	1830	0.49	24
4	1859	0.5	79
4	1896	0.51	113
4	1929	0.52	15
4	1966	0.53	0
4	2017	0.54	0
4	2058	0.55	72
4	2091	0.56	168
4	2130	0.57	77
4	2169	0.58	54
4	2204	0.59	37
4	2247	0.6	0
4	2284	0.61	0
4	2319	0.62	61
4	2360	0.63	75
4	2395	0.64	3
4	2442	0.65	0
4	2477	0.66	52
4	2522	0.67	76
4	2557	0.68	55
4	2582	0.69	99
4	2609	0.7	56
4	2648	0.71	0
4	2671	0.72	86
4	2724	0.73	59
4	2763	0.74	13
4	2794	0.75	48
4	2815	0.76	0
4	2854	0.77	53
4	2895	0.78	81
4	2926	0.79	24
4	2965	0.8	56
4	3004	0.81	49
4	3041	0.82	12
4	3086	0.83	50
4	3109	0.84	149
4	3146	0.85	58
4	3183	0.86	4
4	3208	0.87	0
4	3261	0.88	0
4	3298	0.89	167
4	3333	0.9	98
4	3362	0.91	0
4	3379	0.92	25
4	3414	0.93	0
4	3447	0.94	21
4	3484	0.95	61
4	3513	0.96	0
4	3564	0.97	0
4	3621	0.98	70
4	3648	0.99	115
4	3677	1	65
4	3706	1.01	6
4	3751	1.02	0
4	3780	1.03	183
4	3821	1.04	104
4	3868	1.05	0
4	3889	1.06	0
4	3928	1.07	197
4	3967	1.08	0
4	4016	1.09	18
4	4049	1.1	88
4	4088	1.11	63
4	4123	1.12	0
4	4176	1.13	11
4	4207	1.14	0
4	4250	1.15	186
4	4279	1.16	0
4	4318	1.17	124
4	4357	1.18	0
4	4394	1.19	0
4	4423	1.2	29
4	4460	1.21	0
4	4487	1.22	0
4	4524	1.23	45
4	4561	1.24	40
4	4590	1.25	47
4	4641	1.26	0
4	4692	1.27	16
4	4731	1.28	60
4	4768	1.29	65
4	4813	1.3	0
4	4848	1.31	69
4	4897	1.32	68
4	4916	1.33	79
4	4939	1.34	23
4	4976	1.35	0
4	5027	1.36	193
4	5054	1.37	0
4	5095	1.38	92
4	5118	1.39	125
4	5153	1.4	0
4	5182	1.41	100
4	5219	1.42	0
4	5250	1.43	58
4	5279	1.44	41
4	5316	1.45	0
4	5365	1.46	7
4	5390	1.47	104
4	5431	1.48	0
4	5472	1.49	78
4	5509	1.5	5
4	5542	1.51	106
4	5575	1.52	71
4	5612	1.53	0
4	5647	1.54	80
4	5678	1.55	43
4	5725	1.56	0
4	5754	1.57	0
4	5799	1.58	64
4	5846	1.59	155
4	5889	1.6	0
4	5928	1.61	153
4	5969	1.62	0
4	6018	1.63	134
4	6049	1.64	142
4	6084	1.65	245
4	6117	1.66	81
4	6170	1.67	0
4	6203	1.68	0
4	6226	1.69	117
4	6271	1.7	117
4	6312	1.71	32
4	6367	1.72	0
4	6410	1.73	0
4	6445	1.74	119
4	6478	1.75	101
4	6517	1.76	51
4	6560	1.77	0
4	6599	1.78	24
4	6640	1.79	93
4	6669	1.8	40
4	6720	1.81	0
4	6753	1.82	21
4	6792	1.83	49
4	6827	1.84	0
4	6856	1.85	59
4	6909	1.86	110
4	6948	1.87	153
4	6991	1.88	136
4	7030	1.89	42
4	7067	1.9	125
4	7106	1.91	35
4	7135	1.92	31
4	7172	1.93	0
4	7209	1.94	50
4	7254	1.95	4
4	7297	1.96	13
4	7338	1.97	0
4	7367	1.98	0
4	7410	1.99	8
4	7443	2	39
4	7468	2.01	0
4	7507	2.02	0
4	7546	2.03	0
4	7577	2.04	0
4	7616	2.05	81
4	7657	2.06	9
4	7682	2.07	18
4	7711	2.08	0
4	7738	2.09	81
4	7767	2.1	133
4	7808	2.11	0
4	7835	2.12	0
4	7864	2.13	0
4	7903	2.14	78
4	7938	2.15	111
4	7973	2.16	120
4	8016	2.17	1
4	8037	2.18	4
4	8080	2.19	112
4	8115	2.2	0
4	8156	2.21	153
4	8195	2.22	51
4	8230	2.23	0
4	8265	2.24	0
4	8308	2.25	0
4	8341	2.26	112
4	8380	2.27	57
4	8409	2.28	71
4	8442	2.29	0
4	8477	2.3	22
4	8514	2.31	48
4	8565	2.32	57
4	8604	2.33	111
4	8633	2.34	98
4	8664	2.35	0
4	8715	2.36	0
4	8752	2.37	0
4	8787	2.38	0
4	8814	2.39	0
4	8855	2.4	0
4	8880	2.41	0
4	8917	2.42	334
4	8956	2.43	0
4	8995	2.44	68
4	9026	2.45	24
4	9073	2.46	117
4	9106	2.47	8
4	9125	2.48	138
4	9160	2.49	0
4	9191	2.5	29
4	9226	2.51	0
4	9263	2.52	33
4	9308	2.53	0
4	9339	2.54	106
4	9370	2.55	0
4	9403	2.56	0
4	9442	2.57	25
4	9471	2.58	58
4	9502	2.59	11
4	9541	2.6	88
4	9582	2.61	0
4	9621	2.62	73
4	9656	2.63	51
4	9685	2.64	121
4	9732	2.65	71
4	9771	2.66	3
4	9804	2.67	0
4	9833	2.68	51
4	9868	2.69	70
4	9897	2.7	0
4	9942	2.71	0
4	9969	2.72	60
4	10006	2.73	61
4	10051	2.74	95
4	10090	2.75	44
4	10123	2.76	0
4	10146	2.77	151
4	10191	2.78	0
4	10228	2.79	94
4	10259	2.8	38
4	10312	2.81	96
4	10351	2.82	65
4	10384	2.83	141
4	10425	2.84	66
4	10448	2.85	25
4	10485	2.86	0
4	10530	2.87	64
4	10557	2.88	65
4	10592	2.89	123
4	10615	2.9	46
4	10658	2.91	24
4	10699	2.92	0
4	10744	2.93	79
4	10783	2.94	68
4	10814	2.95	27
4	10849	2.96	0
4	10884	2.97	0
4	10921	2.98	148
4	10954	2.99	58
4	10983	3	23
4	11032	3.01	0
4	11067	3.02	0
4	11104	3.03	68
4	11149	3.04	17
4	11178	3.05	44
4	11211	3.06	0
4	11238	3.07	0
4	11271	3.08	0
4	11304	3.09	63
4	11337	3.1	0
4	11374	3.11	57
4	11395	3.12	38
4	11442	3.13	23
4	11487	3.14	0
4	11528	3.15	196
4	11555	3.16	0
4	11598	3.17	0
4	11629	3.18	0
4	11676	3.19	0
4	11725	3.2	47
4	11768	3.21	0
4	11805	3.22	38
4	11832	3.23	0
4	11883	3.24	70
4	11938	3.25	0
4	11969	3.26	69
4	12004	3.27	0
4	12039	3.28	54
4	12092	3.29	0
4	12117	3.3	0
4	12176	3.31	0
4	12229	3.32	592
4	12268	3.33	0
4	12303	3.34	0
4	12348	3.35	341
4	12387	3.36	62
4	12428	3.37	30
4	12463	3.38	0
4	12510	3.39	106
4	12541	3.4	0
4	12568	3.41	99
4	12599	3.42	0
4	12634	3.43	112
4	12667	3.44	0
4	12694	3.45	71
4	12719	3.46	22
4	12778	3.47	47
4	12803	3.48	22
4	12838	3.49	83
4	12873	3.5	79
4	12924	3.51	0
4	12955	3.52	0
4	12994	3.53	32
4	13023	3.54	91
4	13068	3.55	0
4	13101	3.56	10
4	13138	3.57	56
4	13171	3.58	0
4	13210	3.59	0
4	13241	3.6	0
4	13288	3.61	161
4	13327	3.62	0
4	13362	3.63	0
4	13399	3.64	160
4	13432	3.65	0
4	13461	3.66	20
4	13510	3.67	0
4	13537	3.68	160
4	13576	3.69	0
4	13619	3.7	0
4	13662	3.71	0
4	13703	3.72	126
4	13732	3.73	0
4	13777	3.74	47
4	13812	3.75	60
4	13857	3.76	0
4	13896	3.77	0
4	13929	3.78	0
4	13966	3.79	56
4	13999	3.8	0
4	14034	3.81	264
4	14079	3.82	24
4	14128	3.83	54
4	14173	3.84	103
4	14212	3.85	46
4	14245	3.86	40
4	14290	3.87	92
4	14331	3.88	0
4	14370	3.89	0
4	14407	3.9	133
4	14450	3.91	0
4	14497	3.92	250
4	14528	3.93	48
4	14557	3.94	5
4	14596	3.95	135
4	14637	3.96	52
4	14670	3.97	0
4	14723	3.98	0
4	14758	3.99	23
4	14785	4	0
4	14826	4.01	219
4	14863	4.02	44
4	14902	4.03	0
4	14935	4.04	9
4	14958	4.05	0
4	14995	4.06	0
4	15024	4.07	211
4	15051	4.08	9
4	15094	4.09	0
4	15123	4.1	0
4	15160	4.11	192
4	15195	4.12	28
4	15230	4.13	29
4	15267	4.14	65
4	15302	4.15	0
4	15335	4.16	161
4	15366	4.17	0
4	15415	4.18	66
4	15460	4.19	145
4	15511	4.2	0
4	15554	4.21	72
4	15585	4.22	0
4	15614	4.23	0
4	15647	4.24	145
4	15672	4.25	139
4	15709	4.26	0
4	15742	4.27	0
4	15787	4.28	241
4	15820	4.29	47
4	15853	4.3	0
4	15884	4.31	11
4	15927	4.32	70
4	15958	4.33	0
4	15989	4.34	21
4	16026	4.35	76
4	16065	4.36	0
4	16102	4.37	151
4	16141	4.38	0
4	16180	4.39	0
4	16227	4.4	0
4	16268	4.41	10
4	16299	4.42	362
4	16336	4.43	0
4	16367	4.44	294
4	16400	4.45	47
4	16427	4.46	0
4	16458	4.47	48
4	16491	4.48	0
4	16538	4.49	129
4	16575	4.5	146
4	16624	4.51	49
4	16663	4.52	0
4	16712	4.53	0
4	16745	4.54	175
4	16780	4.55	0
4	16835	4.56	0
4	16870	4.57	71
4	16903	4.58	42
4	16946	4.59	7
4	16967	4.6	0
4	17002	4.61	25
4	17031	4.62	0
4	17066	4.63	48
4	17097	4.64	61
4	17136	4.65	0
4	17171	4.66	145
4	17204	4.67	37
4	17235	4.68	0
4	17276	4.69	68
4	17305	4.7	0
4	17340	4.71	76
4	17373	4.72	0
4	17410	4.73	17
4	17445	4.74	0
4	17474	4.75	55
4	17515	4.76	0
4	17558	4.77	12
4	17593	4.78	38
4	17628	4.79	132
4	17669	4.8	0
4	17708	4.81	34
4	17749	4.82	71
4	17788	4.83	0
4	17817	4.84	69
4	17852	4.85	0
4	17895	4.86	0
4	17930	4.87	0
4	17969	4.88	0
4	18014	4.89	0
4	18049	4.9	124
4	18086	4.91	68
4	18115	4.92	67
4	18144	4.93	103
4	18179	4.94	0
4	18218	4.95	48
4	18247	4.96	0
4	18272	4.97	0
4	18307	4.98	51
4	18350	4.99	55
4	18387	5	33
4	18428	5.01	218
4	18469	5.02	43
4	18496	5.03	0
4	18527	5.04	0
4	18572	5.05	90
4	18597	5.06	0
4	18634	5.07	0
4	18669	5.08	236
4	18712	5.09	59
4	18749	5.1	116
4	18784	5.11	0
4	18821	5.12	33
4	18862	5.13	72
4	18887	5.14	31
4	18934	5.15	100
4	18975	5.16	0
4	19006	5.17	70
4	19033	5.18	0
4	19070	5.19	55
4	19107	5.2	24
4	19136	5.21	76
4	19167	5.22	74
4	19204	5.23	0
4	19235	5.24	104
4	19264	5.25	0
4	19307	5.26	71
4	19352	5.27	204
4	19389	5.28	0
4	19420	5.29	49
4	19457	5.3	17
4	19496	5.31	131
4	19531	5.32	0
4	19564	5.33	53
4	19595	5.34	100
4	19636	5.35	0
4	19665	5.36	76
4	19706	5.37	0
4	19739	5.38	92
4	19770	5.39	0
4	19819	5.4	73
4	19862	5.41	308
4	19901	5.42	55
4	19932	5.43	0
4	19969	5.44	21
4	20006	5.45	0
4	20053	5.46	135
4	20088	5.47	87
4	20111	5.48	0
4	20146	5.49	95
4	20193	5.5	0
4	20236	5.51	71
4	20273	5.52	47
4	20318	5.53	49
4	20349	5.54	146
4	20388	5.55	7
4	20427	5.56	82
4	20454	5.57	0
4	20497	5.58	200
4	20534	5.59	28
4	20569	5.6	79
4	20608	5.61	0
4	20637	5.62	61
4	20664	5.63	14
4	20707	5.64	28
4	20738	5.65	0
4	20779	5.66	90
4	20822	5.67	0
4	20857	5.68	0
4	20880	5.69	0
4	20925	5.7	0
4	20958	5.71	147
4	20993	5.72	70
4	21036	5.73	0
4	21067	5.74	94
4	21092	5.75	0
4	21151	5.76	0
4	21178	5.77	161
4	21203	5.78	0
4	21248	5.79	0
4	21273	5.8	55
4	21320	5.81	43
4	21361	5.82	0
4	21390	5.83	61
4	21433	5.84	264
4	21468	5.85	0
4	21497	5.86	0
4	21520	5.87	132
4	21571	5.88	0
4	21608	5.89	44
4	21633	5.9	0
4	21664	5.91	49
4	21693	5.92	0
4	21730	5.93	0
4	21771	5.94	131
4	21810	5.95	74
4	21843	5.96	112
4	21872	5.97	15
4	21905	5.98	0
4	21936	5.99	27
4	21967	6	35
4	22004	6.01	0
4	22047	6.02	113
4	22082	6.03	65
4	22127	6.04	0
4	22158	6.05	9
4	22189	6.06	100
4	22228	6.07	5
4	22269	6.08	71
4	22306	6.09	0
4	22351	6.1	13
4	22382	6.11	100
4	22413	6.12	0
4	22460	6.13	60
4	22497	6.14	19
4	22536	6.15	0
4	22573	6.16	0
4	22604	6.17	0
4	22645	6.18	0
4	22674	6.19	0
4	22711	6.2	90
4	22740	6.21	0
4	22787	6.22	290
4	22830	6.23	0
4	22871	6.24	0
4	22910	6.25	0
4	22945	6.26	221
4	22986	6.27	49
4	23019	6.28	0
4	23060	6.29	0
4	23095	6.3	181
4	23134	6.31	8
4	23157	6.32	69
4	23192	6.33	0
4	23213	6.34	71
4	23250	6.35	35
4	23279	6.36	0
4	23320	6.37	0
4	23349	6.38	66
4	23392	6.39	39
4	23423	6.4	2
4	23470	6.41	32
4	23519	6.42	42
4	23552	6.43	129
4	23587	6.44	0
4	23624	6.45	0
4	23661	6.46	22
4	23692	6.47	0
4	23729	6.48	81
4	23770	6.49	0
4	23811	6.5	65
4	23854	6.51	5
4	23899	6.52	87
4	23936	6.53	46
4	23969	6.54	67
4	23998	6.55	101
4	24049	6.56	88
4	24074	6.57	117
4	24119	6.58	72
4	24150	6.59	49
4	24185	6.6	116
4	24214	6.61	0
4	24253	6.62	0
4	24292	6.63	261
4	24333	6.64	0
4	24368	6.65	39
4	24403	6.66	40
4	24442	6.67	0
4	24485	6.68	76
4	24514	6.69	265
4	24557	6.7	0
4	24590	6.71	44
4	24629	6.72	0
4	24660	6.73	93
4	24697	6.74	0
4	24738	6.75	0
4	24773	6.76	119
4	24810	6.77	0
4	24837	6.78	88
4	24874	6.79	0
4	24927	6.8	66
4	24968	6.81	36
4	24997	6.82	40
4	25042	6.83	42
4	25079	6.84	0
4	25110	6.85	129
4	25149	6.86	9
4	25186	6.87	172
4	25219	6.88	0
4	25254	6.89	70
4	25309	6.9	46
4	25330	6.91	191
4	25361	6.92	118
4	25402	6.93	0
4	25453	6.94	144
4	25496	6.95	0
4	25525	6.96	0
4	25560	6.97	24
4	25599	6.98	71
4	25646	6.99	0
4	25687	7	0
4	25722	7.01	0
4	25757	7.02	343
4	25808	7.03	0
4	25843	7.04	103
4	25866	7.05	0
4	25911	7.06	107
4	25950	7.07	0
4	25983	7.08	149
4	26024	7.09	0
4	26053	7.1	27
4	26084	7.11	0
4	26135	7.12	0
4	26162	7.13	62
4	26189	7.14	70
4	26224	7.15	0
4	26257	7.16	0
4	26284	7.17	49
4	26333	7.18	0
4	26370	7.19	32
4	26407	7.2	0
4	26430	7.21	133
4	26461	7.22	55
4	26500	7.23	0
4	26547	7.24	105
4	26588	7.25	23
4	26619	7.26	55
4	26660	7.27	0
4	26697	7.28	63
4	26738	7.29	167
4	26781	7.3	0
4	26820	7.31	39
4	26849	7.32	0
4	26884	7.33	18
4	26919	7.34	0
4	26952	7.35	62
4	26987	7.36	0
4	27022	7.37	0
4	27051	7.38	67
4	27080	7.39	56
4	27113	7.4	19
4	27144	7.41	147
4	27185	7.42	0
4	27226	7.43	58
4	27255	7.44	58
4	27290	7.45	70
4	27327	7.46	0
4	27360	7.47	0
4	27401	7.48	93
4	27430	7.49	27
4	27477	7.5	0
4	27496	7.51	38
4	27527	7.52	0
4	27562	7.53	0
4	27591	7.54	109
4	27620	7.55	0
4	27647	7.56	26
4	27680	7.57	0
4	27709	7.58	31
4	27740	7.59	62
4	27779	7.6	29
4	27822	7.61	33
4	27857	7.62	84
4	27906	7.63	38
4	27945	7.64	0
4	27982	7.65	227
4	28017	7.66	0
4	28054	7.67	73
4	28081	7.68	99
4	28106	7.69	18
4	28139	7.7	58
4	28176	7.71	5
4	28217	7.72	118
4	28260	7.73	0
4	28303	7.74	81
4	28350	7.75	142
4	28371	7.76	46
4	28404	7.77	0
4	28445	7.78	72
4	28472	7.79	59
4	28497	7.8	0
4	28530	7.81	85
4	28563	7.82	0
4	28602	7.83	0
4	28629	7.84	83
4	28662	7.85	0
4	28693	7.86	12
4	28730	7.87	26
4	28765	7.88	47
4	28810	7.89	37
4	28861	7.9	144
4	28902	7.91	203
4	28937	7.92	128
4	28976	7.93	48
4	29005	7.94	64
4	29034	7.95	65
4	29065	7.96	0
4	29102	7.97	25
4	29139	7.98	7
4	29174	7.99	105
4	29205	8	5
4	29234	8.01	43
4	29263	8.02	64
4	29288	8.03	23
4	29327	8.04	0
4	29354	8.05	70
4	29385	8.06	71
4	29408	8.07	29
4	29433	8.08	180
4	29484	8.09	0
4	29525	8.1	43
4	29566	8.11	55
4	29591	8.12	0
4	29622	8.13	0
4	29675	8.14	15
4	29714	8.15	119
4	29749	8.16	23
4	29788	8.17	39
4	29823	8.18	0
4	29860	8.19	80
4	29891	8.2	0
4	29906	8.21	0
4	29933	8.22	0
4	29970	8.23	0
4	30021	8.24	109
4	30058	8.25	133
4	30081	8.26	134
4	30104	8.27	0
4	30135	8.28	68
4	30188	8.29	17
4	30231	8.3	202
4	30268	8.31	39
4	30295	8.32	52
4	30320	8.33	33
4	30349	8.34	0
4	30386	8.35	44
4	30419	8.36	0
4	30448	8.37	0
4	30485	8.38	22
4	30514	8.39	67
4	30549	8.4	45
4	30586	8.41	0
4	30627	8.42	19
4	30666	8.43	25
4	30717	8.44	129
4	30754	8.45	144
4	30799	8.46	99
4	30830	8.47	43
4	30873	8.48	53
4	30912	8.49	21
4	30949	8.5	43
4	30978	8.51	13
4	31017	8.52	60
4	31060	8.53	48
4	31111	8.54	39
4	31140	8.55	167
4	31171	8.56	51
4	31206	8.57	0
4	31259	8.58	2
4	31286	8.59	302
4	31315	8.6	18
4	31352	8.61	102
4	31385	8.62	0
4	31416	8.63	18
4	31443	8.64	0
4	31472	8.65	56
4	31505	8.66	35
4	31540	8.67	125
4	31589	8.68	70
4	31636	8.69	58
4	31663	8.7	29
4	31694	8.71	0
4	31727	8.72	45
4	31768	8.73	86
4	31807	8.74	33
4	31844	8.75	87
4	31869	8.76	42
4	31896	8.77	60
4	31929	8.78	63
4	31968	8.79	12
4	32017	8.8	0
4	32054	8.81	60
4	32099	8.82	289
4	32148	8.83	0
4	32183	8.84	66
4	32208	8.85	45
4	32243	8.86	0
4	32282	8.87	85
4	32319	8.88	62
4	32358	8.89	0
4	32389	8.9	0
4	32436	8.91	223
4	32473	8.92	71
4	32498	8.93	83
4	32533	8.94	0
4	32572	8.95	0
4	32609	8.96	166
4	32646	8.97	8
4	32673	8.98	0
4	32708	8.99	0
4	32749	9	139
4	32780	9.01	27
4	32813	9.02	121
4	32848	9.03	43
4	32897	9.04	0
4	32938	9.05	155
4	32977	9.06	0
4	33020	9.07	118
4	33055	9.08	0
4	33094	9.09	0
4	33129	9.1	137
4	33160	9.11	134
4	33189	9.12	0
4	33234	9.13	3
4	33263	9.14	59
4	33304	9.15	2
4	33341	9.16	0
4	33378	9.17	0
4	33407	9.18	1
4	33452	9.19	70
4	33489	9.2	0
4	33538	9.21	69
4	33575	9.22	64
4	33608	9.23	13
4	33641	9.24	0
4	33674	9.25	56
4	33713	9.26	100
4	33748	9.27	0
4	33781	9.28	18
4	33818	9.29	100
4	33853	9.3	27
4	33886	9.31	0
4	33919	9.32	77
4	33956	9.33	4
4	33991	9.34	41
4	34018	9.35	0
4	34063	9.36	96
4	34104	9.37	173
4	34135	9.38	0
4	34162	9.39	74
4	34199	9.4	69
4	34240	9.41	117
4	34275	9.42	32
4	34316	9.43	28
4	34361	9.44	72
4	34398	9.45	45
4	34441	9.46	56
4	34484	9.47	117
4	34521	9.48	34
4	34560	9.49	0
4	34593	9.5	309
4	34632	9.51	38
4	34663	9.52	29
4	34698	9.53	0
4	34735	9.54	60
4	34770	9.55	0
4	34813	9.56	45
4	34856	9.57	0
4	34891	9.58	0
4	34922	9.59	0
4	34957	9.6	0
4	34990	9.61	161
4	35043	9.62	234
4	35084	9.63	118
4	35123	9.64	0
4	35154	9.65	0
4	35195	9.66	87
4	35236	9.67	0
4	35281	9.68	78
4	35324	9.69	51
4	35363	9.7	36
4	35400	9.71	0
4	35435	9.72	0
4	35466	9.73	118
4	35497	9.74	103
4	35544	9.75	55
4	35577	9.76	0
4	35606	9.77	103
4	35649	9.78	0
4	35678	9.79	123
4	35721	9.8	0
4	35764	9.81	16
4	35803	9.82	59
4	35838	9.83	0
4	35889	9.84	0
4	35936	9.85	0
4	35969	9.86	0
4	35998	9.87	0
4	36031	9.88	0
4	36066	9.89	0
4	36095	9.9	529
4	36124	9.91	0
4	36161	9.92	0
4	36206	9.93	0
4	36243	9.94	120
4	36268	9.95	43
4	36299	9.96	0
4	36332	9.97	93
4	36375	9.98	0
4	36410	9.99	0
4	36439	10	0
5	42	0.01	0
5	83	0.02	127
5	118	0.03	114
5	149	0.04	24
5	188	0.05	0
5	227	0.06	29
5	270	0.07	0
5	323	0.08	112
5	372	0.09	33
5	423	0.1	102
5	462	0.11	0
5	503	0.12	0
5	530	0.13	0
5	571	0.14	201
5	600	0.15	0
5	633	0.16	22
5	670	0.17	4
5	709	0.18	0
5	742	0.19	15
5	777	0.2	69
5	814	0.21	0
5	849	0.22	55
5	876	0.23	0
5	917	0.24	0
5	958	0.25	39
5	995	0.26	0
5	1032	0.27	56
5	1061	0.28	0
5	1094	0.29	93
5	1127	0.3	99
5	1168	0.31	0
5	1205	0.32	0
5	1258	0.33	72
5	1279	0.34	0
5	1322	0.35	172
5	1357	0.36	0
5	1394	0.37	269
5	1443	0.38	24
5	1474	0.39	58
5	1523	0.4	0
5	1552	0.41	74
5	1591	0.42	1
5	1614	0.43	14
5	1641	0.44	61
5	1688	0.45	12
5	1729	0.46	79
5	1768	0.47	15
5	1791	0.48	38
5	1830	0.49	0
5	1859	0.5	101
5	1896	0.51	0
5	1929	0.52	0
5	1966	0.53	71
5	2017	0.54	0
5	2058	0.55	72
5	2091	0.56	68
5	2130	0.57	227
5	2169	0.58	113
5	2204	0.59	57
5	2247	0.6	153
5	2284	0.61	0
5	2319	0.62	14
5	2360	0.63	215
5	2395	0.64	113
5	2442	0.65	25
5	2477	0.66	57
5	2522	0.67	98
5	2557	0.68	73
5	2582	0.69	43
5	2609	0.7	40
5	2648	0.71	75
5	2671	0.72	0
5	2724	0.73	0
5	2763	0.74	17
5	2794	0.75	120
5	2815	0.76	8
5	2854	0.77	0
5	2895	0.78	73
5	2926	0.79	0
5	2965	0.8	24
5	3004	0.81	95
5	3041	0.82	30
5	3086	0.83	103
5	3109	0.84	9
5	3146	0.85	0
5	3183	0.86	6
5	3208	0.87	74
5	3261	0.88	96
5	3298	0.89	89
5	3333	0.9	68
5	3362	0.91	36
5	3379	0.92	31
5	3414	0.93	0
5	3447	0.94	28
5	3484	0.95	93
5	3513	0.96	0
5	3564	0.97	0
5	3621	0.98	57
5	3648	0.99	124
5	3677	1	100
5	3706	1.01	0
5	3751	1.02	0
5	3780	1.03	28
5	3821	1.04	0
5	3868	1.05	96
5	3889	1.06	0
[...]
12	34593	9.5	0.014291819946001
12	34593	9.5	0.049980190372001
12	34593	9.5	0.048759219359001
12	34593	9.5	0.038740149215
12	34593	9.5	0.030555446723
12	34593	9.5	0.022504800837
12	34593	9.5	0.012930139941
12	34593	9.5	0.012774972596
12	34632	9.51	0.014765914324
12	34632	9.51	0.016974558019999
12	34632	9.51	0.014154753093999
12	34632	9.51	0.010558508304999
12	34632	9.51	0.018299933591999
12	34632	9.51	0.016338882532001
12	34632	9.51	0.014022573228999
12	34632	9.51	0.014124678278
12	34632	9.51	0.013344342209001
12	34632	9.51	0.013114854681
12	34632	9.51	0.012268185281
12	34663	9.52	0.017404369605
12	34663	9.52	0.015574646013
12	34663	9.52	0.015216963767999
12	34663	9.52	0.012868193497999
12	34663	9.52	0.015944710355999
12	34663	9.52	0.010909679225
12	34663	9.52	0.014481419163999
12	34663	9.52	0.012972345805
12	34663	9.52	0.019126163106
12	34663	9.52	0.010638296533999
12	34663	9.52	0.018429350641
12	34663	9.52	0.013440188812
12	34663	9.52	0.012819436127
12	34698	9.53	0.015826382399
12	34698	9.53	0.015372516539999
12	34698	9.53	0.014165702349999
12	34698	9.53	0.016303677159
12	34698	9.53	0.024050598866999
12	34698	9.53	0.011704466836999
12	34698	9.53	0.017415081338999
12	34698	9.53	0.017980004026999
12	34698	9.53	0.015283451110999
12	34735	9.54	0.024679167015
12	34735	9.54	0.011473552281
12	34735	9.54	0.019731709680999
12	34735	9.54	0.018837843981
12	34735	9.54	0.011284530910999
12	34770	9.55	0.010495175357999
12	34770	9.55	0.022701180002999
12	34770	9.55	0.028425369817999
12	34770	9.55	0.024436263758
12	34770	9.55	0.021247288692999
12	34770	9.55	0.017667276329998
12	34770	9.55	0.016527367602999
12	34770	9.55	0.016389823091
12	34770	9.55	0.025853033807
12	34770	9.55	0.018266844247
12	34813	9.56	0.044277608007
12	34813	9.56	0.036704527286
12	34813	9.56	0.025803814360001
12	34813	9.56	0.024608485117001
12	34813	9.56	0.026653887258
12	34813	9.56	0.016006780399001
12	34813	9.56	0.010491472989001
12	34856	9.57	0.033589624013
12	34856	9.57	0.032691462495
12	34891	9.58	0.033156882237
12	34891	9.58	0.027865945928001
12	34891	9.58	0.018293288395
12	34891	9.58	0.013786707077001
12	34891	9.58	0.057753649084001
12	34891	9.58	0.050293623955
12	34891	9.58	0.046807952352001
12	34891	9.58	0.035191003967
12	34891	9.58	0.038360325303
12	34891	9.58	0.035886709341
12	34891	9.58	0.02172968484
12	34922	9.59	0.048694363878001
12	34922	9.59	0.047428053036001
12	34922	9.59	0.038634746803
12	34922	9.59	0.048759843742999
12	34922	9.59	0.044308579837001
12	34922	9.59	0.038744705864
12	34922	9.59	0.024752132258
12	34922	9.59	0.02396625007
12	34922	9.59	0.023037728767999
12	34922	9.59	0.020766089094
12	34922	9.59	0.018587962421
12	34922	9.59	0.015347713733
12	34957	9.6	0.044978111438001
12	34957	9.6	0.038386663944999
12	34957	9.6	0.038105147751001
12	34957	9.6	0.033553785620001
12	34957	9.6	0.030608346014001
12	34957	9.6	0.029686514894999
12	34957	9.6	0.013972922398001
12	34957	9.6	0.050742032572
12	34957	9.6	0.049124114235999
12	34957	9.6	0.048089461193999
12	34957	9.6	0.044477780954001
12	34957	9.6	0.043401636664999
12	34957	9.6	0.042139617979
12	34957	9.6	0.028619886812999
12	34957	9.6	0.065034477952
12	34957	9.6	0.060319452399
12	34990	9.61	0.053799941656999
12	34990	9.61	0.036662053951
12	34990	9.61	0.032740405275
12	34990	9.61	0.015241358156999
12	34990	9.61	0.050858971088999
12	34990	9.61	0.041493011723
12	34990	9.61	0.035632214314999
12	34990	9.61	0.056139713363999
12	34990	9.61	0.025659637751
12	34990	9.61	0.019305636255
12	34990	9.61	0.053119658544
12	35043	9.62	0.024658453653
12	35043	9.62	0.043089186015999
12	35043	9.62	0.037915974196999
12	35043	9.62	0.027711816551999
12	35043	9.62	0.020040891398999
12	35043	9.62	0.010708172674999
12	35043	9.62	0.050385618748999
12	35043	9.62	0.048025794140999
12	35043	9.62	0.039517540819
12	35043	9.62	0.039481496556
12	35043	9.62	0.016962612738
12	35043	9.62	0.015162039545
12	35043	9.62	0.013930093215999
12	35043	9.62	0.013837753732
12	35043	9.62	0.071646340725
12	35043	9.62	0.061655590637999
12	35043	9.62	0.046709419716999
12	35043	9.62	0.041876512665999
12	35043	9.62	0.035988606886999
12	35043	9.62	0.034707706820999
12	35043	9.62	0.023065471994
12	35084	9.63	0.012636732832998
12	35084	9.63	0.020018551131999
12	35084	9.63	0.017663925948
12	35084	9.63	0.017166061212999
12	35084	9.63	0.013203253906999
12	35084	9.63	0.010015552483999
12	35084	9.63	0.028227651274999
12	35084	9.63	0.012649716175
12	35084	9.63	0.026962971276999
12	35084	9.63	0.024411924343999
12	35084	9.63	0.018840585183
12	35084	9.63	0.072494916348999
12	35084	9.63	0.069473852844999
12	35084	9.63	0.066724502705998
12	35084	9.63	0.065475866041
12	35084	9.63	0.061119666573999
12	35084	9.63	0.018835332811999
12	35084	9.63	0.013939202882
12	35084	9.63	0.012553995953999
12	35084	9.63	0.01181448553
12	35084	9.63	0.011484871562999
12	35084	9.63	0.011405975496999
12	35084	9.63	0.032550887467
12	35084	9.63	0.030980230725
12	35084	9.63	0.016617774284999
12	35123	9.64	0.010027931574001
12	35123	9.64	0.015670245722001
12	35123	9.64	0.018237212749002
12	35123	9.64	0.014940077683001
12	35123	9.64	0.022857856654001
12	35123	9.64	0.017516990861001
12	35123	9.64	0.063782206120001
12	35123	9.64	0.057229675319
12	35123	9.64	0.053854696445001
12	35123	9.64	0.050300333818001
12	35123	9.64	0.046201287777
12	35123	9.64	0.044782517592001
12	35123	9.64	0.042038792734001
12	35123	9.64	0.041715043003
12	35123	9.64	0.038023009343
12	35123	9.64	0.032451954174
12	35123	9.64	0.028987712604001
12	35123	9.64	0.024815921581
12	35123	9.64	0.021876583363001
12	35123	9.64	0.021246386921002
12	35123	9.64	0.019123403247001
12	35123	9.64	0.014772956464
12	35123	9.64	0.014219820020001
12	35123	9.64	0.013864066112001
12	35154	9.65	0.029511455929001
12	35154	9.65	0.024182153682
12	35154	9.65	0.023695128802
12	35154	9.65	0.01809570903
12	35154	9.65	0.010491052387001
12	35154	9.65	0.014916905109001
12	35154	9.65	0.016261660812001
12	35154	9.65	0.015936542336
12	35154	9.65	0.014368849837
12	35154	9.65	0.013309011145001
12	35154	9.65	0.010720031830001
12	35154	9.65	0.019185564102001
12	35154	9.65	0.030901841896
12	35195	9.66	0.020785316238999
12	35195	9.66	0.011585957862
12	35195	9.66	0.024450484265
12	35195	9.66	0.022731013746
12	35195	9.66	0.030971472884
12	35195	9.66	0.012082682719001
12	35195	9.66	0.011836579711
12	35195	9.66	0.013990840730001
12	35195	9.66	0.016572162633
12	35195	9.66	0.015400070314
12	35195	9.66	0.024915484916001
12	35195	9.66	0.018267366263
12	35195	9.66	0.010075830508001
12	35195	9.66	0.019538259974
12	35195	9.66	0.040893081544001
12	35195	9.66	0.031042108633001
12	35195	9.66	0.030493932159001
12	35195	9.66	0.021783796929
12	35195	9.66	0.019168380737
12	35236	9.67	0.013920625420001
12	35236	9.67	0.011213346795
12	35236	9.67	0.011557295905
12	35236	9.67	0.012532638307
12	35236	9.67	0.016110360400001
12	35236	9.67	0.013094961775
12	35236	9.67	0.013890337723
12	35236	9.67	0.011660010375
12	35236	9.67	0.018952757495001
12	35236	9.67	0.01564036321
12	35236	9.67	0.012536490158
12	35236	9.67	0.019950169783
12	35236	9.67	0.018843441143
12	35281	9.68	0.015192909308
12	35281	9.68	0.013850898202
12	35281	9.68	0.014980432465
12	35281	9.68	0.013220208511999
12	35281	9.68	0.013144719663
12	35281	9.68	0.019917822424
12	35281	9.68	0.013876694466999
12	35281	9.68	0.019212259636999
12	35281	9.68	0.010877207994
12	35281	9.68	0.013309894287
12	35281	9.68	0.010894760931
12	35281	9.68	0.020445739034001
12	35281	9.68	0.012560245971001
12	35281	9.68	0.027766476528999
12	35281	9.68	0.01784080132
12	35281	9.68	0.011539088593
12	35324	9.69	0.01328305461
12	35324	9.69	0.01034701283
12	35324	9.69	0.014304522034999
12	35324	9.69	0.011709964706
12	35324	9.69	0.01962733531
12	35324	9.69	0.019559260197999
12	35324	9.69	0.016994254744001
12	35324	9.69	0.018758359589
12	35324	9.69	0.024301330463
12	35324	9.69	0.017912003298999
12	35324	9.69	0.019102044813
12	35324	9.69	0.018326555796
12	35324	9.69	0.017994749666
12	35324	9.69	0.011633668732999
12	35324	9.69	0.017310726722
12	35363	9.7	0.011477924732999
12	35363	9.7	0.011355548045
12	35363	9.7	0.014226163872999
12	35363	9.7	0.011774211129
12	35363	9.7	0.010688514882
12	35363	9.7	0.010116556890999
12	35363	9.7	0.027851826905
12	35363	9.7	0.025171889317999
12	35363	9.7	0.015621706364
12	35363	9.7	0.016422057819
12	35363	9.7	0.013966697888
12	35363	9.7	0.018189430006
12	35363	9.7	0.011816894900999
12	35363	9.7	0.022348744975
12	35363	9.7	0.012287629379999
12	35400	9.71	0.021715144709999
12	35400	9.71	0.017720785877
12	35400	9.71	0.022872737255
12	35400	9.71	0.019054938823999
12	35400	9.71	0.016986830954
12	35400	9.71	0.018139739752
12	35400	9.71	0.010812424391998
12	35400	9.71	0.016841754353999
12	35435	9.72	0.023357349819001
12	35435	9.72	0.016824842067001
12	35435	9.72	0.014328779880001
12	35435	9.72	0.019448673082001
12	35435	9.72	0.012539522320001
12	35435	9.72	0.022562368988002
12	35435	9.72	0.034991280380002
12	35435	9.72	0.033989879946001
12	35435	9.72	0.023478009261002
12	35435	9.72	0.021601516594
12	35435	9.72	0.025264324987001
12	35435	9.72	0.02022789974
12	35435	9.72	0.013070093203002
12	35435	9.72	0.013055100131
12	35435	9.72	0.010270991075
12	35435	9.72	0.026162418896002
12	35435	9.72	0.024890279405001
12	35435	9.72	0.017178564288001
12	35435	9.72	0.018463206914001
12	35466	9.73	0.028581878865001
12	35466	9.73	0.026448647107001
12	35466	9.73	0.022137871352001
12	35466	9.73	0.017438799283001
12	35466	9.73	0.01373444955
12	35466	9.73	0.018754733343
12	35466	9.73	0.014850938007001
12	35466	9.73	0.01807509022
12	35466	9.73	0.010431642342001
12	35466	9.73	0.010161955672
12	35466	9.73	0.016863908057001
12	35466	9.73	0.016539110091001
12	35466	9.73	0.025381727861001
12	35466	9.73	0.016321706740001
12	35466	9.73	0.015884147405
12	35466	9.73	0.015183111823001
12	35497	9.74	0.011320341675001
12	35497	9.74	0.013776911103001
12	35497	9.74	0.011316031519
12	35497	9.74	0.015965465196
12	35497	9.74	0.013569527378001
12	35497	9.74	0.010634990890001
12	35497	9.74	0.015867440321001
12	35497	9.74	0.010641066017
12	35497	9.74	0.014636699996
12	35497	9.74	0.011850768457
12	35544	9.75	0.014808286447
12	35544	9.75	0.016415905474
12	35544	9.75	0.010033867714
12	35544	9.75	0.015707464324
12	35544	9.75	0.014765547531001
12	35544	9.75	0.011000251799
12	35544	9.75	0.014581669710001
12	35544	9.75	0.016292422744
12	35544	9.75	0.012805594431001
12	35544	9.75	0.010251291134001
12	35577	9.76	0.018591486759
12	35577	9.76	0.016483837882999
12	35577	9.76	0.016187273952999
12	35577	9.76	0.016114962550001
12	35577	9.76	0.015268377350999
12	35577	9.76	0.011404855559
12	35577	9.76	0.018875013700001
12	35577	9.76	0.014678583328999
12	35577	9.76	0.013628556913
12	35577	9.76	0.017177710328999
12	35577	9.76	0.019628211220001
12	35577	9.76	0.010553872014
12	35577	9.76	0.019986598602999
12	35577	9.76	0.018445239544
12	35606	9.77	0.013493191871
12	35606	9.77	0.019194828554999
12	35606	9.77	0.015338664279
12	35606	9.77	0.013319248186999
12	35606	9.77	0.018833502046
12	35606	9.77	0.016061821797999
12	35606	9.77	0.015203110281
12	35606	9.77	0.029177764335
12	35606	9.77	0.028642544594
12	35606	9.77	0.021854398331
12	35606	9.77	0.017129232141
12	35606	9.77	0.014380655791999
12	35606	9.77	0.022463657276999
12	35606	9.77	0.017288347331
12	35649	9.78	0.013132306904
12	35649	9.78	0.019852532153999
12	35649	9.78	0.010757401536999
12	35678	9.79	0.017135947426999
12	35678	9.79	0.016239750524999
12	35678	9.79	0.014887683744
12	35678	9.79	0.010162425092
12	35678	9.79	0.019845978364
12	35678	9.79	0.013354172446999
12	35678	9.79	0.027312535201999
12	35678	9.79	0.021106579553999
12	35678	9.79	0.017050069526999
12	35678	9.79	0.010794252572
12	35678	9.79	0.016904524516999
12	35721	9.8	0.043534744042999
12	35721	9.8	0.034127947882999
12	35721	9.8	0.028182911886999
12	35721	9.8	0.018663655928
12	35721	9.8	0.038254732357998
12	35721	9.8	0.03920419578
12	35721	9.8	0.010351126067999
12	35764	9.81	0.019754397489001
12	35764	9.81	0.015877464361001
12	35764	9.81	0.013647595726001
12	35764	9.81	0.010436784398001
12	35764	9.81	0.028819950302001
12	35764	9.81	0.019998413796001
12	35764	9.81	0.028582332594
12	35764	9.81	0.036694372348
12	35764	9.81	0.034553727478
12	35764	9.81	0.032295063321001
12	35764	9.81	0.030549994080001
12	35764	9.81	0.019973566334
12	35764	9.81	0.014049822913
12	35764	9.81	0.017449975695001
12	35764	9.81	0.014811535337001
12	35764	9.81	0.013286483827001
12	35764	9.81	0.012840891629001
12	35764	9.81	0.041857617160002
12	35764	9.81	0.032328220417
12	35764	9.81	0.031160477916
12	35764	9.81	0.025366847955
12	35764	9.81	0.01731803949
12	35803	9.82	0.017210070021001
12	35803	9.82	0.016709989636
12	35803	9.82	0.011049091873
12	35803	9.82	0.012164305264001
12	35803	9.82	0.010072295896
12	35803	9.82	0.014021318093
12	35803	9.82	0.018182799457
12	35803	9.82	0.015621201152001
12	35803	9.82	0.015058942658001
12	35803	9.82	0.014449318196
12	35803	9.82	0.010099526440001
12	35838	9.83	0.049384890722001
12	35838	9.83	0.044033874738
12	35838	9.83	0.037648084374
12	35838	9.83	0.021191646036
12	35838	9.83	0.016633124186001
12	35838	9.83	0.038129526425001
12	35838	9.83	0.025394384848001
12	35838	9.83	0.024004610578
12	35838	9.83	0.018289165557
12	35838	9.83	0.045174752849
12	35838	9.83	0.041325396635001
12	35838	9.83	0.012506096102999
12	35838	9.83	0.014158641354001
12	35838	9.83	0.012365223669001
12	35889	9.84	0.026141723677
12	35889	9.84	0.021711635214
12	35889	9.84	0.020608515625
12	35889	9.84	0.014748001216001
12	35889	9.84	0.049054365436
12	35889	9.84	0.039452547805
12	35889	9.84	0.036481849953001
12	35889	9.84	0.02219107542
12	35889	9.84	0.014718593025
12	35889	9.84	0.012884122593
12	35889	9.84	0.018040529542001
12	35889	9.84	0.014964439357
12	35889	9.84	0.041590678168999
12	35889	9.84	0.029986147775
12	35889	9.84	0.024399395237999
12	35889	9.84	0.012984861708
12	35889	9.84	0.021363734891001
12	35889	9.84	0.011684633117
12	35936	9.85	0.014363884877
12	35936	9.85	0.010543404325
12	35936	9.85	0.010270951958001
12	35936	9.85	0.010144882991
12	35936	9.85	0.018301694410999
12	35936	9.85	0.017414683754
12	35936	9.85	0.014390517028
12	35936	9.85	0.011974685326999
12	35936	9.85	0.017930292618001
12	35936	9.85	0.014693439428999
12	35969	9.86	0.017590704347999
12	35969	9.86	0.017489345488
12	35969	9.86	0.011108550123
12	35969	9.86	0.013654558376
12	35969	9.86	0.012589286781999
12	35969	9.86	0.011552048005999
12	35969	9.86	0.020953824075999
12	35969	9.86	0.020670804246999
12	35969	9.86	0.015910583244999
12	35969	9.86	0.015363955946
12	35969	9.86	0.01192053588
12	35969	9.86	0.013523817972999
12	35969	9.86	0.026691883509999
12	35969	9.86	0.026332986752999
12	35998	9.87	0.012751147012999
12	35998	9.87	0.019964430533999
12	35998	9.87	0.017947717930999
12	35998	9.87	0.015574188971
12	35998	9.87	0.017408705551999
12	35998	9.87	0.010617392199999
12	35998	9.87	0.030431751494
12	35998	9.87	0.025505152089
12	35998	9.87	0.023750474298
12	36031	9.88	0.019684142908
12	36031	9.88	0.012856097097
12	36031	9.88	0.017323352879
12	36031	9.88	0.016268344059998
12	36031	9.88	0.010783435133
12	36031	9.88	0.012631789239999
12	36031	9.88	0.032954556917
12	36031	9.88	0.026111607363999
12	36031	9.88	0.055249412298
12	36066	9.89	0.016142166449001
12	36066	9.89	0.012304968394
12	36066	9.89	0.015221076009
12	36066	9.89	0.010157437950001
12	36066	9.89	0.016421409031
12	36066	9.89	0.035937334549001
12	36066	9.89	0.031866128432
12	36066	9.89	0.015253280503
12	36066	9.89	0.011650580628
12	36066	9.89	0.063509727834001
12	36095	9.9	0.083871402101
12	36095	9.9	0.08313550075
12	36095	9.9	0.077631780178001
12	36095	9.9	0.076557092708001
12	36095	9.9	0.072767480351001
12	36095	9.9	0.069138479921001
12	36095	9.9	0.066847466835
12	36095	9.9	0.065717537452
12	36095	9.9	0.060275403095
12	36095	9.9	0.052602824145001
12	36095	9.9	0.047171275353001
12	36095	9.9	0.029515359857001
12	36095	9.9	0.024371299605001
12	36095	9.9	0.023127928180001
12	36095	9.9	0.022189036239
12	36095	9.9	0.065931396025
12	36095	9.9	0.058645527893001
12	36124	9.91	0.021717110125
12	36124	9.91	0.019581973974001
12	36124	9.91	0.010361268393
12	36124	9.91	0.026688893289
12	36124	9.91	0.015671205872
12	36124	9.91	0.023365793630001
12	36124	9.91	0.019152481248
12	36124	9.91	0.016986916358
12	36124	9.91	0.015138839675
12	36124	9.91	0.013108958710001
12	36124	9.91	0.025983478520001
12	36124	9.91	0.025258156279
12	36124	9.91	0.021048647795
12	36124	9.91	0.065606056095
12	36161	9.92	0.011022658299
12	36161	9.92	0.011557736639
12	36161	9.92	0.010565390196
12	36161	9.92	0.010537301378999
12	36161	9.92	0.016459252843999
12	36161	9.92	0.028854596395
12	36161	9.92	0.079637565085001
12	36161	9.92	0.072145975333999
12	36206	9.93	0.01570432296
12	36206	9.93	0.010444308668999
12	36206	9.93	0.017854686487
12	36206	9.93	0.015264955834001
12	36206	9.93	0.017806802173
12	36206	9.93	0.013618379745999
12	36206	9.93	0.049260008944
12	36206	9.93	0.069119214382999
12	36243	9.94	0.038199537524999
12	36243	9.94	0.021597870909
12	36243	9.94	0.015353785571
12	36243	9.94	0.083502361146
12	36243	9.94	0.073961889386
12	36243	9.94	0.050938310734999
12	36243	9.94	0.044318235322999
12	36243	9.94	0.016621200449
12	36243	9.94	0.022873914667999
12	36243	9.94	0.022394962955
12	36243	9.94	0.019882715079
12	36243	9.94	0.017101078119
12	36243	9.94	0.013794099004
12	36243	9.94	0.012785538599999
12	36243	9.94	0.021585958235999
12	36243	9.94	0.015148506202999
12	36243	9.94	0.012207204135999
12	36243	9.94	0.017963794762
12	36243	9.94	0.016710647296
12	36243	9.94	0.019827833486
12	36268	9.95	0.015463416965
12	36268	9.95	0.035693271349
12	36268	9.95	0.028615664474
12	36268	9.95	0.011661384084999
12	36268	9.95	0.026861619957
12	36268	9.95	0.017608248439
12	36268	9.95	0.017557181378999
12	36268	9.95	0.016546822082999
12	36268	9.95	0.013629360182
12	36268	9.95	0.015470875763999
12	36268	9.95	0.067029916694999
12	36268	9.95	0.064020466356
12	36268	9.95	0.034708284201999
12	36268	9.95	0.01558475609
12	36299	9.96	0.021679264021
12	36299	9.96	0.091255176201999
12	36299	9.96	0.076869247179999
12	36299	9.96	0.076720663626999
12	36299	9.96	0.059747871206
12	36299	9.96	0.053847480365999
12	36299	9.96	0.053477893265999
12	36299	9.96	0.047514303168999
12	36299	9.96	0.035686063516
12	36299	9.96	0.030180038863
12	36332	9.97	0.023992258015001
12	36332	9.97	0.020078201257
12	36332	9.97	0.019837723704001
12	36332	9.97	0.017566827985
12	36332	9.97	0.024839595417001
12	36332	9.97	0.022130218567002
12	36332	9.97	0.029610044559
12	36332	9.97	0.02292374037
12	36332	9.97	0.021867902938
12	36332	9.97	0.012792516168
12	36332	9.97	0.011410113022
12	36332	9.97	0.049935635065001
12	36332	9.97	0.049204320834001
12	36332	9.97	0.036815518894
12	36332	9.97	0.036049199071002
12	36332	9.97	0.015943960383002
12	36332	9.97	0.013435930685
12	36332	9.97	0.012697347780001
12	36332	9.97	0.034734726777002
12	36375	9.98	0.016665932127001
12	36375	9.98	0.015335716713
12	36375	9.98	0.014304633945001
12	36375	9.98	0.017197697737
12	36375	9.98	0.018169242766001
12	36375	9.98	0.016864665970001
12	36375	9.98	0.016074638353
12	36375	9.98	0.015064365974
12	36410	9.99	0.027524694189001
12	36410	9.99	0.022576625714001
12	36410	9.99	0.018329350278
12	36410	9.99	0.051583600369
12	36410	9.99	0.034759040839001
12	36410	9.99	0.033823207137001
12	36410	9.99	0.032568798761
12	36410	9.99	0.025233150372001
12	36410	9.99	0.018712006679001
12	36410	9.99	0.014021822086001
12	36410	9.99	0.013951665283001
12	36410	9.99	0.012646655925
12	36410	9.99	0.018708897131001
12	36410	9.99	0.016501822671
12	36410	9.99	0.01980261828
12	36410	9.99	0.013706738279
12	36410	9.99	0.011172791048001
12	36410	9.99	0.017901574634001
12	36410	9.99	0.017023811935001
12	36410	9.99	0.015376641909
12	36410	9.99	0.01309721462
12	36410	9.99	0.011591009113001
12	36410	9.99	0.012659643147
12	36439	10	0.017563851181
12	36439	10	0.016965282892
12	36439	10	0.016546985437
12	36439	10	0.014864848290999
12	36439	10	0.014740883751001
12	36439	10	0.011829650780999
12	36439	10	0.012519517922
12	36439	10	0.019298349376001
12	36439	10	0.010021393461001
12	36439	10	0.01642441842
12	36439	10	0.014604222767
12	36439	10	0.014323924116001

