version 2
run General-99-20191218-17:12:46-6844
attr configname General
attr datetime 20191218-17:12:46
attr experiment General
attr inifile omnetpp.ini
attr iterationvars ""
attr iterationvarsf ""
attr measurement ""
attr network CellularNetwork
attr processid 6844
attr repetition 99
attr replication #99
attr resultdir results
attr runnumber 99
attr seedset 99
param **.nUsers 10
param **.antenna.timeslot 0.01s
param **.user[*].lambda 0.008s

vector 0 CellularNetwork.antenna throughput:vector ETV
attr source throughput
vector 1 CellularNetwork.antenna NumServedUser:vector ETV
attr source NumServedUser
vector 2 CellularNetwork.antenna tptUser-0:vector ETV
vector 3 CellularNetwork.antenna tptUser-1:vector ETV
vector 4 CellularNetwork.antenna tptUser-2:vector ETV
vector 5 CellularNetwork.antenna tptUser-3:vector ETV
vector 6 CellularNetwork.antenna tptUser-4:vector ETV
vector 7 CellularNetwork.antenna tptUser-5:vector ETV
vector 8 CellularNetwork.antenna tptUser-6:vector ETV
vector 9 CellularNetwork.antenna tptUser-7:vector ETV
vector 10 CellularNetwork.antenna tptUser-8:vector ETV
vector 11 CellularNetwork.antenna tptUser-9:vector ETV
vector 12 CellularNetwork.antenna responseTime:vector ETV
attr source responseTime
0	48	0.01	0
0	69	0.02	180500
0	102	0.03	589600
0	139	0.04	210600
0	176	0.05	456300
0	219	0.06	326400
0	250	0.07	583000
0	285	0.08	116500
0	310	0.09	74800
0	343	0.1	99600
0	390	0.11	310500
0	429	0.12	646200
0	466	0.13	526400
0	497	0.14	54800
0	536	0.15	355200
0	571	0.16	206400
0	608	0.17	62700
0	657	0.18	778400
0	690	0.19	563400
0	731	0.2	657600
0	782	0.21	298900
0	821	0.22	250600
0	862	0.23	300600
0	887	0.24	277200
0	926	0.25	208000
0	963	0.26	524300
0	1012	0.27	357700
0	1051	0.28	458500
0	1098	0.29	408000
0	1125	0.3	291000
0	1164	0.31	519400
0	1191	0.32	385700
0	1230	0.33	152000
0	1251	0.34	264600
0	1282	0.35	35100
0	1323	0.36	269400
0	1356	0.37	393400
0	1381	0.38	308000
0	1414	0.39	147600
0	1461	0.4	247200
0	1492	0.41	81300
0	1537	0.42	741600
0	1570	0.43	104000
0	1605	0.44	498400
0	1644	0.45	207000
0	1679	0.46	635400
0	1714	0.47	406700
0	1753	0.48	333900
0	1790	0.49	409600
0	1823	0.5	508000
0	1866	0.51	163800
0	1909	0.52	367500
0	1948	0.53	374400
0	1983	0.54	284900
0	2010	0.55	337400
0	2041	0.56	204000
0	2078	0.57	265600
0	2105	0.58	374400
0	2134	0.59	147000
0	2159	0.6	108400
0	2212	0.61	266700
0	2257	0.62	314300
0	2294	0.63	796800
0	2323	0.64	263200
0	2356	0.65	225400
0	2383	0.66	212100
0	2414	0.67	156000
0	2451	0.68	208000
0	2482	0.69	255500
0	2519	0.7	292000
0	2552	0.71	228600
0	2583	0.72	330400
0	2620	0.73	321000
0	2651	0.74	253400
0	2678	0.75	376600
0	2725	0.76	163200
0	2746	0.77	469000
0	2789	0.78	79600
0	2826	0.79	47100
0	2853	0.8	266400
0	2906	0.81	231600
0	2939	0.82	633500
0	2966	0.83	647200
0	2999	0.84	178500
0	3026	0.85	83400
0	3053	0.86	282000
0	3096	0.87	212800
0	3119	0.88	370300
0	3154	0.89	213600
0	3189	0.9	507600
0	3210	0.91	490400
0	3247	0.92	107000
0	3292	0.93	368900
0	3321	0.94	384000
0	3354	0.95	201600
0	3385	0.96	223800
0	3422	0.97	82400
0	3453	0.98	497600
0	3496	0.99	172200
0	3553	1	572000
0	3586	1.01	596800
0	3619	1.02	87200
0	3648	1.03	451800
0	3681	1.04	131000
0	3726	1.05	497600
0	3755	1.06	273000
0	3792	1.07	185000
0	3829	1.08	197500
0	3880	1.09	122500
0	3913	1.1	963000
0	3950	1.11	618300
0	3991	1.12	121600
0	4034	1.13	364700
0	4075	1.14	564000
0	4120	1.15	164000
0	4165	1.16	528000
0	4204	1.17	256200
0	4251	1.18	855900
0	4284	1.19	725400
0	4335	1.2	170800
0	4374	1.21	739200
0	4411	1.22	297600
0	4442	1.23	264500
0	4477	1.24	322500
0	4494	1.25	191100
0	4531	1.26	71200
0	4566	1.27	89200
0	4597	1.28	372000
0	4630	1.29	98500
0	4671	1.3	623200
0	4714	1.31	390400
0	4747	1.32	175200
0	4792	1.33	267000
0	4825	1.34	362400
0	4872	1.35	97800
0	4909	1.36	270600
0	4952	1.37	248000
0	4977	1.38	257500
0	5002	1.39	280500
0	5047	1.4	257600
0	5078	1.41	211200
0	5103	1.42	17000
0	5138	1.43	392400
0	5177	1.44	315000
0	5210	1.45	153000
0	5257	1.46	532800
0	5284	1.47	464000
0	5321	1.48	523200
0	5350	1.49	178000
0	5405	1.5	371200
0	5452	1.51	404000
0	5483	1.52	522200
0	5510	1.53	106500
0	5555	1.54	570400
0	5592	1.55	382400
0	5651	1.56	592000
0	5684	1.57	18300
0	5713	1.58	289200
0	5758	1.59	268500
0	5787	1.6	223500
0	5820	1.61	212000
0	5867	1.62	312600
0	5890	1.63	107400
0	5929	1.64	316400
0	5962	1.65	138400
0	6001	1.66	118800
0	6044	1.67	560000
0	6087	1.68	943200
0	6122	1.69	864000
0	6167	1.7	312300
0	6196	1.71	369600
0	6225	1.72	154800
0	6262	1.73	122400
0	6305	1.74	121600
0	6342	1.75	233400
0	6387	1.76	352200
0	6414	1.77	931200
0	6447	1.78	255000
0	6496	1.79	441600
0	6525	1.8	558600
0	6558	1.81	7500
0	6591	1.82	75000
0	6632	1.83	612900
0	6673	1.84	168400
0	6706	1.85	87600
0	6745	1.86	62700
0	6784	1.87	345000
0	6821	1.88	1255500
0	6866	1.89	447300
0	6909	1.9	542400
0	6944	1.91	392000
0	6979	1.92	252000
0	7020	1.93	462000
0	7061	1.94	518400
0	7096	1.95	409600
0	7133	1.96	185400
0	7158	1.97	393400
0	7193	1.98	209300
0	7222	1.99	531200
0	7253	2	160800
0	7282	2.01	134400
0	7309	2.02	111500
0	7346	2.03	354200
0	7371	2.04	386400
0	7400	2.05	208500
0	7441	2.06	100000
0	7478	2.07	492000
0	7513	2.08	195000
0	7562	2.09	423500
0	7597	2.1	448000
0	7622	2.11	44400
0	7659	2.12	270900
0	7698	2.13	624600
0	7725	2.14	237600
0	7768	2.15	245400
0	7795	2.16	128100
0	7826	2.17	68000
0	7857	2.18	163200
0	7894	2.19	168800
0	7929	2.2	372500
0	7958	2.21	96500
0	7989	2.22	598400
0	8030	2.23	463200
0	8067	2.24	298900
0	8100	2.25	304000
0	8137	2.26	220500
0	8164	2.27	476100
0	8201	2.28	171600
0	8238	2.29	228600
0	8273	2.3	333200
0	8304	2.31	213500
0	8341	2.32	271200
0	8376	2.33	176500
0	8425	2.34	532800
0	8456	2.35	270000
0	8483	2.36	302400
0	8524	2.37	580300
0	8583	2.38	308000
0	8614	2.39	365600
0	8649	2.4	585600
0	8680	2.41	202800
0	8717	2.42	426400
0	8756	2.43	428800
0	8787	2.44	315200
0	8818	2.45	238000
0	8861	2.46	187800
0	8894	2.47	353500
0	8923	2.48	110400
0	8962	2.49	415800
0	9005	2.5	582300
0	9044	2.51	474400
0	9079	2.52	428000
0	9106	2.53	296800
0	9133	2.54	128100
0	9174	2.55	133800
0	9217	2.56	185400
0	9252	2.57	518700
0	9285	2.58	540800
0	9314	2.59	340200
0	9345	2.6	127500
0	9380	2.61	75200
0	9415	2.62	344400
0	9442	2.63	350400
0	9475	2.64	134500
0	9502	2.65	332800
0	9537	2.66	181500
0	9574	2.67	280000
0	9609	2.68	238800
0	9652	2.69	201500
0	9689	2.7	352800
0	9726	2.71	270200
0	9753	2.72	191500
0	9784	2.73	599900
0	9833	2.74	217200
0	9876	2.75	240000
0	9909	2.76	197000
0	9958	2.77	502600
0	9999	2.78	331000
0	10034	2.79	670400
0	10075	2.8	515900
0	10114	2.81	502200
0	10145	2.82	439600
0	10178	2.83	274400
0	10211	2.84	313600
0	10238	2.85	178800
0	10267	2.86	239400
0	10306	2.87	142000
0	10335	2.88	487200
0	10386	2.89	183000
0	10419	2.9	293500
0	10452	2.91	230000
0	10483	2.92	30000
0	10526	2.93	634500
0	10565	2.94	203000
0	10602	2.95	137200
0	10643	2.96	954000
0	10688	2.97	313200
0	10725	2.98	679200
0	10768	2.99	485100
0	10795	3	443800
0	10832	3.01	168000
0	10871	3.02	215400
0	10906	3.03	280700
0	10955	3.04	424000
0	10992	3.05	406700
0	11039	3.06	500400
0	11086	3.07	372800
0	11127	3.08	486400
0	11158	3.09	486400
0	11189	3.1	153300
0	11226	3.11	228600
0	11271	3.12	160800
0	11320	3.13	710400
0	11363	3.14	239500
0	11414	3.15	303600
0	11449	3.16	459600
0	11484	3.17	538300
0	11523	3.18	159600
0	11554	3.19	462000
0	11603	3.2	222000
0	11652	3.21	532800
0	11689	3.22	465500
0	11720	3.23	446400
0	11749	3.24	285600
0	11784	3.25	273600
0	11825	3.26	191500
0	11868	3.27	332400
0	11895	3.28	45200
0	11928	3.29	602100
0	11959	3.3	273700
0	11994	3.31	284400
0	12045	3.32	348000
0	12088	3.33	620800
0	12127	3.34	517600
0	12162	3.35	388000
0	12195	3.36	176000
0	12242	3.37	220200
0	12271	3.38	139200
0	12320	3.39	57600
0	12355	3.4	396200
0	12390	3.41	195600
0	12415	3.42	99300
0	12454	3.43	259000
0	12485	3.44	384000
0	12514	3.45	371000
0	12545	3.46	124800
0	12578	3.47	400400
0	12619	3.48	737100
0	12650	3.49	519200
0	12683	3.5	297600
0	12736	3.51	240000
0	12763	3.52	446400
0	12808	3.53	184000
0	12847	3.54	486500
0	12892	3.55	559800
0	12931	3.56	517600
0	12968	3.57	350400
0	13015	3.58	361800
0	13042	3.59	452200
0	13089	3.6	63000
0	13134	3.61	841000
0	13175	3.62	79600
0	13212	3.63	653800
0	13241	3.64	396000
0	13278	3.65	247200
0	13317	3.66	522900
0	13352	3.67	237500
0	13395	3.68	329700
0	13424	3.69	309600
0	13461	3.7	178500
0	13488	3.71	225400
0	13525	3.72	247800
0	13558	3.73	496800
0	13581	3.74	265000
0	13612	3.75	128500
0	13645	3.76	112000
0	13680	3.77	115200
0	13711	3.78	587700
0	13758	3.79	133000
0	13803	3.8	545400
0	13840	3.81	495200
0	13875	3.82	119200
0	13914	3.83	609300
0	13947	3.84	268800
0	13982	3.85	429600
0	14027	3.86	388500
0	14068	3.87	292500
0	14105	3.88	155600
0	14142	3.89	400800
0	14169	3.9	384600
0	14200	3.91	331800
0	14237	3.92	234000
0	14278	3.93	141000
0	14325	3.94	748000
0	14354	3.95	754200
0	14409	3.96	141000
0	14434	3.97	734400
0	14461	3.98	43200
0	14502	3.99	387100
0	14539	4	308700
0	14570	4.01	387100
0	14605	4.02	237000
0	14638	4.03	292000
0	14675	4.04	224700
0	14706	4.05	442400
0	14735	4.06	240800
0	14768	4.07	250800
0	14805	4.08	242200
0	14832	4.09	288400
0	14875	4.1	106400
0	14910	4.11	126800
0	14929	4.12	241800
0	14968	4.13	45300
0	15001	4.14	117300
0	15058	4.15	409200
0	15101	4.16	724000
0	15138	4.17	256000
0	15179	4.18	816000
0	15214	4.19	664000
0	15259	4.2	414400
0	15296	4.21	66000
0	15335	4.22	153200
0	15370	4.23	178500
0	15415	4.24	321600
0	15452	4.25	319000
0	15491	4.26	558400
0	15522	4.27	364000
0	15563	4.28	14400
0	15596	4.29	143600
0	15631	4.3	903600
0	15664	4.31	430500
0	15697	4.32	225500
0	15736	4.33	110400
0	15765	4.34	113200
0	15806	4.35	296400
0	15843	4.36	560000
0	15870	4.37	282600
0	15901	4.38	61200
0	15942	4.39	628200
0	15975	4.4	498600
0	16006	4.41	274200
0	16059	4.42	357600
0	16100	4.43	981000
0	16135	4.44	369600
0	16178	4.45	211500
0	16221	4.46	48300
0	16270	4.47	533600
0	16299	4.48	292200
0	16340	4.49	337800
0	16385	4.5	253500
0	16430	4.51	925200
0	16477	4.52	487800
0	16526	4.53	585900
0	16565	4.54	31800
0	16598	4.55	210800
0	16635	4.56	533600
0	16672	4.57	350700
0	16699	4.58	165600
0	16730	4.59	482300
0	16773	4.6	210000
0	16806	4.61	123000
0	16837	4.62	646200
0	16878	4.63	174000
0	16919	4.64	333900
0	16948	4.65	683200
0	16983	4.66	121800
0	17024	4.67	209300
0	17061	4.68	340000
0	17100	4.69	194500
0	17141	4.7	617600
0	17166	4.71	191400
0	17207	4.72	202000
0	17230	4.73	394800
0	17251	4.74	200000
0	17292	4.75	70400
0	17329	4.76	274400
0	17380	4.77	481500
0	17409	4.78	647100
0	17452	4.79	377600
0	17501	4.8	502400
0	17536	4.81	488600
0	17573	4.82	402500
0	17610	4.83	494400
0	17641	4.84	195500
0	17670	4.85	434700
0	17707	4.86	78400
0	17754	4.87	475200
0	17793	4.88	462600
0	17822	4.89	209400
0	17853	4.9	218500
0	17896	4.91	288600
0	17935	4.92	485100
0	17978	4.93	391200
0	18013	4.94	324100
0	18056	4.95	141600
0	18081	4.96	200000
0	18120	4.97	431400
0	18157	4.98	84600
0	18194	4.99	607200
0	18231	5	360900
0	18274	5.01	332500
0	18309	5.02	241800
0	18346	5.03	622800
0	18397	5.04	125500
0	18432	5.05	666900
0	18475	5.06	590400
0	18510	5.07	437600
0	18545	5.08	195300
0	18576	5.09	331800
0	18613	5.1	142500
0	18648	5.11	235000
0	18687	5.12	527200
0	18730	5.13	467100
0	18781	5.14	172500
0	18810	5.15	134400
0	18845	5.16	510300
0	18886	5.17	537600
0	18915	5.18	391200
0	18956	5.19	222000
0	18997	5.2	565600
0	19034	5.21	441000
0	19073	5.22	293300
0	19104	5.23	314300
0	19133	5.24	226800
0	19162	5.25	189700
0	19203	5.26	108000
0	19250	5.27	342300
0	19289	5.28	188500
0	19322	5.29	596400
0	19367	5.3	398700
0	19402	5.31	516000
0	19453	5.32	585000
0	19480	5.33	205000
0	19521	5.34	921000
0	19576	5.35	260400
0	19607	5.36	164400
0	19646	5.37	552000
0	19685	5.38	402400
0	19724	5.39	467200
0	19767	5.4	428000
0	19806	5.41	173200
0	19841	5.42	248400
0	19876	5.43	468800
0	19905	5.44	162000
0	19944	5.45	48300
0	19977	5.46	582400
0	20012	5.47	312900
0	20047	5.48	291200
0	20078	5.49	29800
0	20111	5.5	722000
0	20142	5.51	127500
0	20185	5.52	44700
0	20216	5.53	553000
0	20257	5.54	90400
0	20288	5.55	434700
0	20337	5.56	279600
0	20374	5.57	660800
0	20409	5.58	334400
0	20456	5.59	347200
0	20501	5.6	423500
0	20524	5.61	506700
0	20557	5.62	116000
0	20598	5.63	178800
0	20639	5.64	409600
0	20672	5.65	466400
0	20709	5.66	340000
0	20750	5.67	398400
0	20781	5.68	111200
0	20824	5.69	110400
0	20861	5.7	505400
0	20890	5.71	526200
0	20921	5.72	177500
0	20958	5.73	123000
0	20997	5.74	173500
0	21034	5.75	415100
0	21073	5.76	452000
0	21110	5.77	128400
0	21159	5.78	136000
0	21198	5.79	40200
0	21231	5.8	469800
0	21262	5.81	167400
0	21301	5.82	209000
0	21344	5.83	203600
0	21377	5.84	325200
0	21408	5.85	665000
0	21443	5.86	704900
0	21472	5.87	275200
0	21521	5.88	135000
0	21546	5.89	431900
0	21585	5.9	436100
0	21618	5.91	273000
0	21661	5.92	471200
0	21698	5.93	242000
0	21729	5.94	130000
0	21764	5.95	429000
0	21795	5.96	150500
0	21836	5.97	259700
0	21885	5.98	664000
0	21920	5.99	365600
0	21957	6	429600
0	21994	6.01	484200
0	22027	6.02	297500
0	22058	6.03	188000
0	22095	6.04	441000
0	22122	6.05	279600
0	22157	6.06	259700
0	22192	6.07	193800
0	22233	6.08	372400
0	22274	6.09	483000
0	22309	6.1	297600
0	22348	6.11	333200
0	22383	6.12	289800
0	22418	6.13	187000
0	22445	6.14	98500
0	22486	6.15	378000
0	22525	6.16	108000
0	22568	6.17	455700
0	22601	6.18	366100
0	22634	6.19	433300
0	22673	6.2	186500
0	22706	6.21	59400
0	22739	6.22	627200
0	22790	6.23	250600
0	22827	6.24	87600
0	22852	6.25	584500
0	22901	6.26	501900
0	22936	6.27	277600
0	22959	6.28	72900
0	22982	6.29	856000
0	23021	6.3	114500
0	23062	6.31	612000
0	23101	6.32	205000
0	23140	6.33	404600
0	23171	6.34	421400
0	23206	6.35	626400
0	23249	6.36	313600
0	23278	6.37	436100
0	23313	6.38	204500
0	23356	6.39	368100
0	23397	6.4	348000
0	23442	6.41	682200
0	23473	6.42	124800
0	23500	6.43	380400
0	23531	6.44	198500
0	23576	6.45	331800
0	23601	6.46	508900
0	23630	6.47	157500
0	23679	6.48	235900
0	23718	6.49	596700
0	23755	6.5	266400
0	23788	6.51	228000
0	23835	6.52	259200
0	23872	6.53	456800
0	23911	6.54	840000
0	23952	6.55	585000
0	23987	6.56	322400
0	24028	6.57	118400
0	24069	6.58	180500
0	24098	6.59	195200
0	24133	6.6	522000
0	24162	6.61	258300
0	24193	6.62	173400
0	24228	6.63	456800
0	24263	6.64	245600
0	24298	6.65	368900
0	24335	6.66	211000
0	24372	6.67	317100
0	24405	6.68	402500
0	24444	6.69	134400
0	24475	6.7	652800
0	24500	6.71	92500
0	24531	6.72	267000
0	24572	6.73	174000
0	24603	6.74	157000
0	24632	6.75	256200
0	24655	6.76	249200
0	24702	6.77	132500
0	24737	6.78	124800
0	24766	6.79	85800
0	24793	6.8	443100
0	24832	6.81	139200
0	24877	6.82	171000
0	24916	6.83	588800
0	24949	6.84	335400
0	24982	6.85	299400
0	25011	6.86	304800
0	25042	6.87	76400
0	25083	6.88	517600
0	25128	6.89	7400
0	25157	6.9	527100
0	25186	6.91	262200
0	25219	6.92	281000
0	25250	6.93	251400
0	25301	6.94	206500
0	25330	6.95	57000
0	25363	6.96	63300
0	25398	6.97	432600
0	25429	6.98	303800
0	25470	6.99	119500
0	25501	7	740700
0	25526	7.01	309400
0	25565	7.02	141600
0	25600	7.03	395100
0	25645	7.04	389600
0	25670	7.05	680400
0	25711	7.06	107600
0	25752	7.07	514400
0	25793	7.08	339500
0	25840	7.09	378700
0	25881	7.1	267400
0	25912	7.11	264600
0	25943	7.12	500800
0	25978	7.13	212000
0	26011	7.14	407400
0	26048	7.15	242200
0	26079	7.16	241200
0	26112	7.17	237000
0	26141	7.18	263900
0	26174	7.19	157200
0	26213	7.2	357000
0	26260	7.21	228600
0	26297	7.22	601600
0	26330	7.23	305200
0	26369	7.24	213600
0	26400	7.25	305900
0	26431	7.26	462700
0	26468	7.27	62000
0	26505	7.28	43200
0	26540	7.29	724000
0	26571	7.3	378000
0	26610	7.31	242100
0	26639	7.32	122500
0	26672	7.33	351400
0	26707	7.34	389200
0	26750	7.35	240100
0	26783	7.36	314300
0	26826	7.37	330400
0	26853	7.38	273000
0	26888	7.39	88400
0	26921	7.4	349800
0	26952	7.41	152500
0	26999	7.42	499500
0	27042	7.43	463400
0	27079	7.44	360600
0	27112	7.45	83200
0	27159	7.46	159500
0	27196	7.47	297000
0	27243	7.48	283000
0	27276	7.49	74400
0	27305	7.5	713600
0	27328	7.51	47600
0	27365	7.52	276600
0	27396	7.53	313600
0	27421	7.54	337800
0	27464	7.55	130500
0	27495	7.56	273000
0	27548	7.57	76800
0	27589	7.58	310000
0	27622	7.59	194800
0	27659	7.6	126000
0	27698	7.61	295200
0	27759	7.62	640800
0	27796	7.63	155400
0	27821	7.64	111500
0	27862	7.65	762400
0	27897	7.66	816300
0	27938	7.67	249900
0	27975	7.68	364000
0	28018	7.69	486500
0	28057	7.7	203700
0	28086	7.71	408100
0	28129	7.72	172200
0	28158	7.73	432900
0	28185	7.74	120000
0	28210	7.75	180000
0	28233	7.76	164000
0	28260	7.77	68800
0	28295	7.78	128000
0	28340	7.79	96000
0	28387	7.8	776000
0	28422	7.81	513600
0	28469	7.82	54000
0	28500	7.83	782400
0	28533	7.84	292800
0	28568	7.85	212400
0	28595	7.86	135000
0	28636	7.87	351400
0	28679	7.88	381600
0	28736	7.89	479200
0	28775	7.9	227500
0	28814	7.91	754200
0	28855	7.92	554400
0	28892	7.93	364700
0	28927	7.94	571500
0	28966	7.95	103500
0	29001	7.96	319800
0	29056	7.97	468300
0	29089	7.98	213000
0	29110	7.99	875700
0	29143	8	53100
0	29186	8.01	250600
0	29221	8.02	256800
0	29258	8.03	314000
0	29301	8.04	104400
0	29342	8.05	243500
0	29371	8.06	308000
0	29402	8.07	110800
0	29427	8.08	729600
0	29448	8.09	255600
0	29477	8.1	182500
0	29500	8.11	204600
0	29535	8.12	128500
0	29576	8.13	330300
0	29601	8.14	145500
0	29624	8.15	349200
0	29663	8.16	66500
0	29682	8.17	527400
0	29719	8.18	48900
0	29772	8.19	308700
0	29811	8.2	342900
0	29852	8.21	621000
0	29881	8.22	110400
0	29910	8.23	167600
0	29939	8.24	224000
0	29970	8.25	470400
0	30007	8.26	466900
0	30034	8.27	455400
0	30067	8.28	177500
0	30100	8.29	318500
0	30143	8.3	231600
0	30176	8.31	462600
0	30211	8.32	187800
0	30252	8.33	68100
0	30289	8.34	136500
0	30336	8.35	194000
0	30365	8.36	267600
0	30402	8.37	343000
0	30437	8.38	493800
0	30472	8.39	664000
0	30511	8.4	221900
0	30550	8.41	452000
0	30587	8.42	402400
0	30634	8.43	76400
0	30661	8.44	455700
0	30706	8.45	135000
0	30755	8.46	684000
0	30788	8.47	437600
0	30823	8.48	538200
0	30848	8.49	244300
0	30885	8.5	337400
0	30922	8.51	303100
0	30957	8.52	273000
0	31000	8.53	435600
0	31027	8.54	314300
0	31068	8.55	242400
0	31107	8.56	138000
0	31142	8.57	429100
0	31179	8.58	598500
0	31222	8.59	86000
0	31257	8.6	208000
0	31292	8.61	681600
0	31331	8.62	453600
0	31360	8.63	155000
0	31389	8.64	160800
0	31432	8.65	387800
0	31453	8.66	55800
0	31490	8.67	220500
0	31529	8.68	178000
0	31558	8.69	152000
0	31597	8.7	192500
0	31634	8.71	734400
0	31665	8.72	191500
0	31706	8.73	527800
0	31737	8.74	364000
0	31774	8.75	290500
0	31805	8.76	387000
0	31840	8.77	338400
0	31879	8.78	210600
0	31916	8.79	451800
0	31965	8.8	325600
0	32000	8.81	172800
0	32031	8.82	193200
0	32066	8.83	70200
0	32099	8.84	172400
0	32128	8.85	161200
0	32179	8.86	40000
0	32204	8.87	39200
0	32231	8.88	218000
0	32268	8.89	791700
0	32319	8.9	258000
0	32354	8.91	146000
0	32393	8.92	639100
0	32432	8.93	453600
0	32455	8.94	249200
0	32502	8.95	252600
0	32553	8.96	471100
0	32594	8.97	410000
0	32629	8.98	110500
0	32672	8.99	45800
0	32721	9	709100
0	32756	9.01	336000
0	32783	9.02	409600
0	32822	9.03	489600
0	32861	9.04	307500
0	32908	9.05	172800
0	32951	9.06	257000
0	32990	9.07	214800
0	33019	9.08	45300
0	33054	9.09	11600
0	33093	9.1	247600
0	33130	9.11	191100
0	33185	9.12	569600
0	33218	9.13	625800
0	33261	9.14	761600
0	33316	9.15	432000
0	33355	9.16	469800
0	33386	9.17	375200
0	33421	9.18	378600
0	33452	9.19	468000
0	33493	9.2	231000
0	33530	9.21	575100
0	33571	9.22	273700
0	33608	9.23	370400
0	33653	9.24	334400
0	33694	9.25	226500
0	33731	9.26	389900
0	33768	9.27	499800
0	33809	9.28	321600
0	33844	9.29	420000
0	33877	9.3	357600
0	33912	9.31	236600
0	33969	9.32	232200
0	34004	9.33	403200
0	34055	9.34	629300
0	34102	9.35	409500
0	34133	9.36	487200
0	34168	9.37	499200
0	34209	9.38	305600
0	34250	9.39	69600
0	34287	9.4	76800
0	34330	9.41	250000
0	34367	9.42	143400
0	34412	9.43	204000
0	34455	9.44	108800
0	34488	9.45	697200
0	34521	9.46	353400
0	34552	9.47	352100
0	34569	9.48	238500
0	34604	9.49	283200
0	34643	9.5	333600
0	34682	9.51	281400
0	34721	9.52	244200
0	34748	9.53	291500
0	34781	9.54	297500
0	34810	9.55	359800
0	34843	9.56	24000
0	34880	9.57	72400
0	34919	9.58	69600
0	34952	9.59	163600
0	34987	9.6	892000
0	35020	9.61	297000
0	35051	9.62	580500
0	35090	9.63	412000
0	35115	9.64	312000
0	35152	9.65	131000
0	35185	9.66	316800
0	35214	9.67	166200
0	35249	9.68	215500
0	35282	9.69	99600
0	35319	9.7	427000
0	35344	9.71	351200
0	35383	9.72	93500
0	35412	9.73	214800
0	35437	9.74	586400
0	35460	9.75	64400
0	35487	9.76	63900
0	35526	9.77	226200
0	35549	9.78	101000
0	35590	9.79	214000
0	35625	9.8	7500
0	35644	9.81	15800
0	35677	9.82	981900
0	35710	9.83	275400
0	35757	9.84	329700
0	35794	9.85	193500
0	35835	9.86	661000
0	35864	9.87	373500
0	35889	9.88	456800
0	35928	9.89	127000
0	35965	9.9	199800
0	36004	9.91	413700
0	36031	9.92	269000
0	36066	9.93	350400
0	36097	9.94	39000
0	36140	9.95	472000
0	36183	9.96	254500
0	36222	9.97	667800
0	36265	9.98	315600
0	36298	9.99	634400
0	36333	10	213600
1	48	0.01	0
1	69	0.02	5
1	102	0.03	8
1	139	0.04	6
1	176	0.05	9
1	219	0.06	6
1	250	0.07	10
1	285	0.08	5
1	310	0.09	4
1	343	0.1	4
1	390	0.11	5
1	429	0.12	9
1	466	0.13	8
1	497	0.14	4
1	536	0.15	6
1	571	0.16	6
1	608	0.17	3
1	657	0.18	8
1	690	0.19	9
1	731	0.2	8
1	782	0.21	7
1	821	0.22	7
1	862	0.23	6
1	887	0.24	6
1	926	0.25	4
1	963	0.26	7
1	1012	0.27	7
1	1051	0.28	7
1	1098	0.29	6
1	1125	0.3	6
1	1164	0.31	7
1	1191	0.32	7
1	1230	0.33	5
1	1251	0.34	7
1	1282	0.35	3
1	1323	0.36	6
1	1356	0.37	7
1	1381	0.38	8
1	1414	0.39	6
1	1461	0.4	6
1	1492	0.41	3
1	1537	0.42	9
1	1570	0.43	4
1	1605	0.44	7
1	1644	0.45	5
1	1679	0.46	9
1	1714	0.47	7
1	1753	0.48	7
1	1790	0.49	8
1	1823	0.5	10
1	1866	0.51	7
1	1909	0.52	7
1	1948	0.53	8
1	1983	0.54	7
1	2010	0.55	7
1	2041	0.56	6
1	2078	0.57	8
1	2105	0.58	6
1	2134	0.59	5
1	2159	0.6	4
1	2212	0.61	7
1	2257	0.62	7
1	2294	0.63	8
1	2323	0.64	7
1	2356	0.65	7
1	2383	0.66	7
1	2414	0.67	6
1	2451	0.68	5
1	2482	0.69	7
1	2519	0.7	8
1	2552	0.71	6
1	2583	0.72	7
1	2620	0.73	6
1	2651	0.74	7
1	2678	0.75	7
1	2725	0.76	6
1	2746	0.77	7
1	2789	0.78	4
1	2826	0.79	3
1	2853	0.8	6
1	2906	0.81	6
1	2939	0.82	7
1	2966	0.83	8
1	2999	0.84	5
1	3026	0.85	6
1	3053	0.86	6
1	3096	0.87	7
1	3119	0.88	7
1	3154	0.89	6
1	3189	0.9	9
1	3210	0.91	8
1	3247	0.92	5
1	3292	0.93	7
1	3321	0.94	8
1	3354	0.95	7
1	3385	0.96	6
1	3422	0.97	4
1	3453	0.98	8
1	3496	0.99	6
1	3553	1	8
1	3586	1.01	8
1	3619	1.02	4
1	3648	1.03	9
1	3681	1.04	5
1	3726	1.05	8
1	3755	1.06	7
1	3792	1.07	5
1	3829	1.08	5
1	3880	1.09	5
1	3913	1.1	9
1	3950	1.11	9
1	3991	1.12	4
1	4034	1.13	7
1	4075	1.14	8
1	4120	1.15	4
1	4165	1.16	8
1	4204	1.17	6
1	4251	1.18	9
1	4284	1.19	9
1	4335	1.2	7
1	4374	1.21	8
1	4411	1.22	8
1	4442	1.23	5
1	4477	1.24	5
1	4494	1.25	7
1	4531	1.26	4
1	4566	1.27	4
1	4597	1.28	6
1	4630	1.29	5
1	4671	1.3	8
1	4714	1.31	8
1	4747	1.32	6
1	4792	1.33	5
1	4825	1.34	6
1	4872	1.35	3
1	4909	1.36	6
1	4952	1.37	5
1	4977	1.38	5
1	5002	1.39	5
1	5047	1.4	7
1	5078	1.41	6
1	5103	1.42	1
1	5138	1.43	6
1	5177	1.44	7
1	5210	1.45	5
1	5257	1.46	8
1	5284	1.47	8
1	5321	1.48	8
1	5350	1.49	5
1	5405	1.5	8
1	5452	1.51	8
1	5483	1.52	7
1	5510	1.53	5
1	5555	1.54	8
1	5592	1.55	8
1	5651	1.56	8
1	5684	1.57	1
1	5713	1.58	6
1	5758	1.59	5
1	5787	1.6	5
1	5820	1.61	4
1	5867	1.62	6
1	5890	1.63	3
1	5929	1.64	4
1	5962	1.65	4
1	6001	1.66	3
1	6044	1.67	7
1	6087	1.68	9
1	6122	1.69	9
1	6167	1.7	9
1	6196	1.71	8
1	6225	1.72	6
1	6262	1.73	6
1	6305	1.74	4
1	6342	1.75	6
1	6387	1.76	6
1	6414	1.77	8
1	6447	1.78	6
1	6496	1.79	8
1	6525	1.8	7
1	6558	1.81	1
1	6591	1.82	3
1	6632	1.83	9
1	6673	1.84	4
1	6706	1.85	4
1	6745	1.86	3
1	6784	1.87	5
1	6821	1.88	9
1	6866	1.89	9
1	6909	1.9	8
1	6944	1.91	7
1	6979	1.92	7
1	7020	1.93	7
1	7061	1.94	9
1	7096	1.95	8
1	7133	1.96	6
1	7158	1.97	7
1	7193	1.98	7
1	7222	1.99	8
1	7253	2	6
1	7282	2.01	4
1	7309	2.02	5
1	7346	2.03	7
1	7371	2.04	8
1	7400	2.05	5
1	7441	2.06	5
1	7478	2.07	8
1	7513	2.08	5
1	7562	2.09	7
1	7597	2.1	8
1	7622	2.11	3
1	7659	2.12	7
1	7698	2.13	9
1	7725	2.14	6
1	7768	2.15	6
1	7795	2.16	3
1	7826	2.17	4
1	7857	2.18	6
1	7894	2.19	4
1	7929	2.2	5
1	7958	2.21	5
1	7989	2.22	8
1	8030	2.23	8
1	8067	2.24	7
1	8100	2.25	8
1	8137	2.26	5
1	8164	2.27	9
1	8201	2.28	6
1	8238	2.29	6
1	8273	2.3	7
1	8304	2.31	5
1	8341	2.32	8
1	8376	2.33	5
1	8425	2.34	8
1	8456	2.35	6
1	8483	2.36	6
1	8524	2.37	7
1	8583	2.38	7
1	8614	2.39	8
1	8649	2.4	8
1	8680	2.41	6
1	8717	2.42	8
1	8756	2.43	8
1	8787	2.44	8
1	8818	2.45	7
1	8861	2.46	6
1	8894	2.47	7
1	8923	2.48	4
1	8962	2.49	7
1	9005	2.5	9
1	9044	2.51	8
1	9079	2.52	8
1	9106	2.53	7
1	9133	2.54	7
1	9174	2.55	6
1	9217	2.56	6
1	9252	2.57	7
1	9285	2.58	8
1	9314	2.59	6
1	9345	2.6	5
1	9380	2.61	4
1	9415	2.62	6
1	9442	2.63	8
1	9475	2.64	5
1	9502	2.65	8
1	9537	2.66	5
1	9574	2.67	7
1	9609	2.68	6
1	9652	2.69	5
1	9689	2.7	7
1	9726	2.71	7
1	9753	2.72	5
1	9784	2.73	7
1	9833	2.74	6
1	9876	2.75	5
1	9909	2.76	5
1	9958	2.77	7
1	9999	2.78	5
1	10034	2.79	8
1	10075	2.8	7
1	10114	2.81	9
1	10145	2.82	7
1	10178	2.83	7
1	10211	2.84	7
1	10238	2.85	6
1	10267	2.86	6
1	10306	2.87	5
1	10335	2.88	8
1	10386	2.89	6
1	10419	2.9	5
1	10452	2.91	5
1	10483	2.92	2
1	10526	2.93	9
1	10565	2.94	5
1	10602	2.95	4
1	10643	2.96	10
1	10688	2.97	6
1	10725	2.98	6
1	10768	2.99	7
1	10795	3	7
1	10832	3.01	6
1	10871	3.02	6
1	10906	3.03	7
1	10955	3.04	8
1	10992	3.05	7
1	11039	3.06	9
1	11086	3.07	8
1	11127	3.08	8
1	11158	3.09	8
1	11189	3.1	7
1	11226	3.11	6
1	11271	3.12	6
1	11320	3.13	8
1	11363	3.14	5
1	11414	3.15	6
1	11449	3.16	6
1	11484	3.17	7
1	11523	3.18	7
1	11554	3.19	7
1	11603	3.2	6
1	11652	3.21	9
1	11689	3.22	7
1	11720	3.23	9
1	11749	3.24	7
1	11784	3.25	6
1	11825	3.26	5
1	11868	3.27	6
1	11895	3.28	2
1	11928	3.29	9
1	11959	3.3	7
1	11994	3.31	6
1	12045	3.32	8
1	12088	3.33	8
1	12127	3.34	8
1	12162	3.35	8
1	12195	3.36	5
1	12242	3.37	6
1	12271	3.38	6
1	12320	3.39	3
1	12355	3.4	7
1	12390	3.41	6
1	12415	3.42	3
1	12454	3.43	5
1	12485	3.44	6
1	12514	3.45	7
1	12545	3.46	4
1	12578	3.47	7
1	12619	3.48	9
1	12650	3.49	8
1	12683	3.5	8
1	12736	3.51	8
1	12763	3.52	8
1	12808	3.53	5
1	12847	3.54	7
1	12892	3.55	9
1	12931	3.56	8
1	12968	3.57	8
1	13015	3.58	6
1	13042	3.59	7
1	13089	3.6	3
1	13134	3.61	10
1	13175	3.62	4
1	13212	3.63	7
1	13241	3.64	8
1	13278	3.65	6
1	13317	3.66	7
1	13352	3.67	5
1	13395	3.68	7
1	13424	3.69	6
1	13461	3.7	5
1	13488	3.71	7
1	13525	3.72	6
1	13558	3.73	9
1	13581	3.74	5
1	13612	3.75	5
1	13645	3.76	5
1	13680	3.77	6
1	13711	3.78	9
1	13758	3.79	5
1	13803	3.8	9
1	13840	3.81	8
1	13875	3.82	4
1	13914	3.83	9
1	13947	3.84	6
1	13982	3.85	8
1	14027	3.86	7
1	14068	3.87	9
1	14105	3.88	4
1	14142	3.89	6
1	14169	3.9	6
1	14200	3.91	7
1	14237	3.92	6
1	14278	3.93	5
1	14325	3.94	10
1	14354	3.95	9
1	14409	3.96	5
1	14434	3.97	9
1	14461	3.98	2
1	14502	3.99	7
1	14539	4	7
1	14570	4.01	7
1	14605	4.02	6
1	14638	4.03	8
1	14675	4.04	7
1	14706	4.05	8
1	14735	4.06	8
1	14768	4.07	6
1	14805	4.08	7
1	14832	4.09	7
1	14875	4.1	4
1	14910	4.11	4
1	14929	4.12	6
1	14968	4.13	3
1	15001	4.14	3
1	15058	4.15	6
1	15101	4.16	10
1	15138	4.17	5
1	15179	4.18	8
1	15214	4.19	8
1	15259	4.2	7
1	15296	4.21	3
1	15335	4.22	4
1	15370	4.23	5
1	15415	4.24	8
1	15452	4.25	5
1	15491	4.26	8
1	15522	4.27	7
1	15563	4.28	1
1	15596	4.29	4
1	15631	4.3	9
1	15664	4.31	7
1	15697	4.32	5
1	15736	4.33	4
1	15765	4.34	4
1	15806	4.35	6
1	15843	4.36	8
1	15870	4.37	6
1	15901	4.38	3
1	15942	4.39	9
1	15975	4.4	9
1	16006	4.41	6
1	16059	4.42	8
1	16100	4.43	10
1	16135	4.44	8
1	16178	4.45	5
1	16221	4.46	3
1	16270	4.47	8
1	16299	4.48	6
1	16340	4.49	6
1	16385	4.5	5
1	16430	4.51	9
1	16477	4.52	9
1	16526	4.53	9
1	16565	4.54	3
1	16598	4.55	4
1	16635	4.56	8
1	16672	4.57	7
1	16699	4.58	6
1	16730	4.59	7
1	16773	4.6	7
1	16806	4.61	5
1	16837	4.62	9
1	16878	4.63	6
1	16919	4.64	9
1	16948	4.65	8
1	16983	4.66	6
1	17024	4.67	7
1	17061	4.68	8
1	17100	4.69	5
1	17141	4.7	8
1	17166	4.71	6
1	17207	4.72	4
1	17230	4.73	7
1	17251	4.74	5
1	17292	4.75	4
1	17329	4.76	8
1	17380	4.77	9
1	17409	4.78	9
1	17452	4.79	8
1	17501	4.8	8
1	17536	4.81	7
1	17573	4.82	7
1	17610	4.83	8
1	17641	4.84	5
1	17670	4.85	9
1	17707	4.86	4
1	17754	4.87	8
1	17793	4.88	9
1	17822	4.89	6
1	17853	4.9	5
1	17896	4.91	6
1	17935	4.92	7
1	17978	4.93	8
1	18013	4.94	7
1	18056	4.95	4
1	18081	4.96	4
1	18120	4.97	6
1	18157	4.98	2
1	18194	4.99	8
1	18231	5	9
1	18274	5.01	7
1	18309	5.02	6
1	18346	5.03	9
1	18397	5.04	5
1	18432	5.05	9
1	18475	5.06	9
1	18510	5.07	8
1	18545	5.08	7
1	18576	5.09	7
1	18613	5.1	5
1	18648	5.11	5
1	18687	5.12	8
1	18730	5.13	9
1	18781	5.14	5
1	18810	5.15	4
1	18845	5.16	7
1	18886	5.17	8
1	18915	5.18	8
1	18956	5.19	6
1	18997	5.2	8
1	19034	5.21	9
1	19073	5.22	7
1	19104	5.23	7
1	19133	5.24	6
1	19162	5.25	7
1	19203	5.26	5
1	19250	5.27	7
1	19289	5.28	5
1	19322	5.29	7
1	19367	5.3	9
1	19402	5.31	8
1	19453	5.32	9
1	19480	5.33	5
1	19521	5.34	10
1	19576	5.35	7
1	19607	5.36	4
1	19646	5.37	8
1	19685	5.38	8
1	19724	5.39	8
1	19767	5.4	8
1	19806	5.41	4
1	19841	5.42	6
1	19876	5.43	8
1	19905	5.44	6
1	19944	5.45	3
1	19977	5.46	7
1	20012	5.47	7
1	20047	5.48	7
1	20078	5.49	2
1	20111	5.5	10
1	20142	5.51	5
1	20185	5.52	3
1	20216	5.53	7
1	20257	5.54	4
1	20288	5.55	7
1	20337	5.56	6
1	20374	5.57	8
1	20409	5.58	8
1	20456	5.59	7
1	20501	5.6	7
1	20524	5.61	9
1	20557	5.62	4
1	20598	5.63	4
1	20639	5.64	8
1	20672	5.65	8
1	20709	5.66	8
1	20750	5.67	8
1	20781	5.68	4
1	20824	5.69	3
1	20861	5.7	7
1	20890	5.71	6
1	20921	5.72	5
1	20958	5.73	5
1	20997	5.74	5
1	21034	5.75	7
1	21073	5.76	8
1	21110	5.77	4
1	21159	5.78	5
1	21198	5.79	2
1	21231	5.8	6
1	21262	5.81	3
1	21301	5.82	5
1	21344	5.83	4
1	21377	5.84	6
1	21408	5.85	7
1	21443	5.86	7
1	21472	5.87	8
1	21521	5.88	5
1	21546	5.89	7
1	21585	5.9	7
1	21618	5.91	6
1	21661	5.92	8
1	21698	5.93	5
1	21729	5.94	4
1	21764	5.95	6
1	21795	5.96	5
1	21836	5.97	7
1	21885	5.98	8
1	21920	5.99	8
1	21957	6	8
1	21994	6.01	9
1	22027	6.02	7
1	22058	6.03	5
1	22095	6.04	7
1	22122	6.05	6
1	22157	6.06	7
1	22192	6.07	6
1	22233	6.08	7
1	22274	6.09	7
1	22309	6.1	8
1	22348	6.11	7
1	22383	6.12	7
1	22418	6.13	5
1	22445	6.14	5
1	22486	6.15	5
1	22525	6.16	4
1	22568	6.17	7
1	22601	6.18	7
1	22634	6.19	7
1	22673	6.2	5
1	22706	6.21	3
1	22739	6.22	7
1	22790	6.23	7
1	22827	6.24	4
1	22852	6.25	7
1	22901	6.26	7
1	22936	6.27	8
1	22959	6.28	3
1	22982	6.29	8
1	23021	6.3	5
1	23062	6.31	10
1	23101	6.32	5
1	23140	6.33	7
1	23171	6.34	7
1	23206	6.35	9
1	23249	6.36	7
1	23278	6.37	7
1	23313	6.38	5
1	23356	6.39	9
1	23397	6.4	8
1	23442	6.41	9
1	23473	6.42	4
1	23500	6.43	6
1	23531	6.44	5
1	23576	6.45	7
1	23601	6.46	7
1	23630	6.47	5
1	23679	6.48	7
1	23718	6.49	9
1	23755	6.5	6
1	23788	6.51	8
1	23835	6.52	6
1	23872	6.53	8
1	23911	6.54	10
1	23952	6.55	9
1	23987	6.56	8
1	24028	6.57	4
1	24069	6.58	5
1	24098	6.59	4
1	24133	6.6	6
1	24162	6.61	7
1	24193	6.62	6
1	24228	6.63	8
1	24263	6.64	8
1	24298	6.65	7
1	24335	6.66	5
1	24372	6.67	7
1	24405	6.68	7
1	24444	6.69	6
1	24475	6.7	8
1	24500	6.71	5
1	24531	6.72	5
1	24572	6.73	5
1	24603	6.74	5
1	24632	6.75	7
1	24655	6.76	7
1	24702	6.77	5
1	24737	6.78	4
1	24766	6.79	3
1	24793	6.8	7
1	24832	6.81	4
1	24877	6.82	5
1	24916	6.83	8
1	24949	6.84	6
1	24982	6.85	6
1	25011	6.86	6
1	25042	6.87	4
1	25083	6.88	8
1	25128	6.89	1
1	25157	6.9	7
1	25186	6.91	6
1	25219	6.92	5
1	25250	6.93	6
1	25301	6.94	7
1	25330	6.95	3
1	25363	6.96	3
1	25398	6.97	6
1	25429	6.98	7
1	25470	6.99	5
1	25501	7	9
1	25526	7.01	7
1	25565	7.02	6
1	25600	7.03	9
1	25645	7.04	8
1	25670	7.05	9
1	25711	7.06	4
1	25752	7.07	8
1	25793	7.08	7
1	25840	7.09	7
1	25881	7.1	7
1	25912	7.11	6
1	25943	7.12	8
1	25978	7.13	5
1	26011	7.14	6
1	26048	7.15	7
1	26079	7.16	6
1	26112	7.17	6
1	26141	7.18	7
1	26174	7.19	6
1	26213	7.2	7
1	26260	7.21	6
1	26297	7.22	8
1	26330	7.23	7
1	26369	7.24	6
1	26400	7.25	7
1	26431	7.26	7
1	26468	7.27	4
1	26505	7.28	3
1	26540	7.29	10
1	26571	7.3	7
1	26610	7.31	9
1	26639	7.32	5
1	26672	7.33	7
1	26707	7.34	7
1	26750	7.35	7
1	26783	7.36	7
1	26826	7.37	8
1	26853	7.38	7
1	26888	7.39	4
1	26921	7.4	6
1	26952	7.41	5
1	26999	7.42	9
1	27042	7.43	7
1	27079	7.44	6
1	27112	7.45	4
1	27159	7.46	5
1	27196	7.47	6
1	27243	7.48	5
1	27276	7.49	3
1	27305	7.5	8
1	27328	7.51	2
1	27365	7.52	6
1	27396	7.53	7
1	27421	7.54	6
1	27464	7.55	5
1	27495	7.56	7
1	27548	7.57	3
1	27589	7.58	5
1	27622	7.59	4
1	27659	7.6	3
1	27698	7.61	6
1	27759	7.62	8
1	27796	7.63	3
1	27821	7.64	5
1	27862	7.65	8
1	27897	7.66	9
1	27938	7.67	7
1	27975	7.68	8
1	28018	7.69	7
1	28057	7.7	7
1	28086	7.71	7
1	28129	7.72	7
1	28158	7.73	9
1	28185	7.74	6
1	28210	7.75	6
1	28233	7.76	5
1	28260	7.77	4
1	28295	7.78	4
1	28340	7.79	4
1	28387	7.8	10
1	28422	7.81	8
1	28469	7.82	3
1	28500	7.83	8
1	28533	7.84	6
1	28568	7.85	6
1	28595	7.86	5
1	28636	7.87	7
1	28679	7.88	8
1	28736	7.89	8
1	28775	7.9	5
1	28814	7.91	9
1	28855	7.92	8
1	28892	7.93	7
1	28927	7.94	9
1	28966	7.95	5
1	29001	7.96	6
1	29056	7.97	7
1	29089	7.98	6
1	29110	7.99	7
1	29143	8	3
1	29186	8.01	7
1	29221	8.02	6
1	29258	8.03	5
1	29301	8.04	4
1	29342	8.05	5
1	29371	8.06	5
1	29402	8.07	4
1	29427	8.08	8
1	29448	8.09	6
1	29477	8.1	5
1	29500	8.11	6
1	29535	8.12	5
1	29576	8.13	9
1	29601	8.14	5
1	29624	8.15	6
1	29663	8.16	5
1	29682	8.17	9
1	29719	8.18	3
1	29772	8.19	7
1	29811	8.2	9
1	29852	8.21	9
1	29881	8.22	4
1	29910	8.23	4
1	29939	8.24	5
1	29970	8.25	8
1	30007	8.26	7
1	30034	8.27	9
1	30067	8.28	5
1	30100	8.29	7
1	30143	8.3	6
1	30176	8.31	9
1	30211	8.32	6
1	30252	8.33	3
1	30289	8.34	5
1	30336	8.35	4
1	30365	8.36	6
1	30402	8.37	5
1	30437	8.38	6
1	30472	8.39	8
1	30511	8.4	7
1	30550	8.41	8
1	30587	8.42	8
1	30634	8.43	4
1	30661	8.44	7
1	30706	8.45	5
1	30755	8.46	8
1	30788	8.47	8
1	30823	8.48	9
1	30848	8.49	7
1	30885	8.5	7
1	30922	8.51	7
1	30957	8.52	7
1	31000	8.53	6
1	31027	8.54	7
1	31068	8.55	4
1	31107	8.56	6
1	31142	8.57	7
1	31179	8.58	9
1	31222	8.59	4
1	31257	8.6	5
1	31292	8.61	8
1	31331	8.62	7
1	31360	8.63	5
1	31389	8.64	6
1	31432	8.65	7
1	31453	8.66	3
1	31490	8.67	7
1	31529	8.68	4
1	31558	8.69	5
1	31597	8.7	5
1	31634	8.71	9
1	31665	8.72	5
1	31706	8.73	7
1	31737	8.74	8
1	31774	8.75	7
1	31805	8.76	9
1	31840	8.77	8
1	31879	8.78	6
1	31916	8.79	9
1	31965	8.8	8
1	32000	8.81	6
1	32031	8.82	6
1	32066	8.83	3
1	32099	8.84	4
1	32128	8.85	4
1	32179	8.86	2
1	32204	8.87	2
1	32231	8.88	4
1	32268	8.89	7
1	32319	8.9	6
1	32354	8.91	4
1	32393	8.92	7
1	32432	8.93	6
1	32455	8.94	7
1	32502	8.95	6
1	32553	8.96	7
1	32594	8.97	5
1	32629	8.98	5
1	32672	8.99	2
1	32721	9	7
1	32756	9.01	7
1	32783	9.02	8
1	32822	9.03	8
1	32861	9.04	5
1	32908	9.05	6
1	32951	9.06	5
1	32990	9.07	6
1	33019	9.08	3
1	33054	9.09	1
1	33093	9.1	4
1	33130	9.11	3
1	33185	9.12	8
1	33218	9.13	7
1	33261	9.14	8
1	33316	9.15	6
1	33355	9.16	6
1	33386	9.17	7
1	33421	9.18	6
1	33452	9.19	9
1	33493	9.2	6
1	33530	9.21	9
1	33571	9.22	7
1	33608	9.23	8
1	33653	9.24	8
1	33694	9.25	5
1	33731	9.26	7
1	33768	9.27	7
1	33809	9.28	8
1	33844	9.29	8
1	33877	9.3	8
1	33912	9.31	7
1	33969	9.32	6
1	34004	9.33	8
1	34055	9.34	7
1	34102	9.35	7
1	34133	9.36	8
1	34168	9.37	8
1	34209	9.38	8
1	34250	9.39	4
1	34287	9.4	3
1	34330	9.41	5
1	34367	9.42	6
1	34412	9.43	5
1	34455	9.44	4
1	34488	9.45	7
1	34521	9.46	6
1	34552	9.47	7
1	34569	9.48	5
1	34604	9.49	4
1	34643	9.5	8
1	34682	9.51	7
1	34721	9.52	6
1	34748	9.53	5
1	34781	9.54	7
1	34810	9.55	7
1	34843	9.56	2
1	34880	9.57	4
1	34919	9.58	4
1	34952	9.59	4
1	34987	9.6	8
1	35020	9.61	6
1	35051	9.62	9
1	35090	9.63	8
1	35115	9.64	8
1	35152	9.65	5
1	35185	9.66	8
1	35214	9.67	6
1	35249	9.68	5
1	35282	9.69	4
1	35319	9.7	7
1	35344	9.71	8
1	35383	9.72	5
1	35412	9.73	6
1	35437	9.74	8
1	35460	9.75	4
1	35487	9.76	3
1	35526	9.77	6
1	35549	9.78	5
1	35590	9.79	5
1	35625	9.8	1
1	35644	9.81	1
1	35677	9.82	9
1	35710	9.83	6
1	35757	9.84	7
1	35794	9.85	5
1	35835	9.86	10
1	35864	9.87	9
1	35889	9.88	8
1	35928	9.89	5
1	35965	9.9	6
1	36004	9.91	7
1	36031	9.92	5
1	36066	9.93	6
1	36097	9.94	2
1	36140	9.95	8
1	36183	9.96	5
1	36222	9.97	9
1	36265	9.98	6
1	36298	9.99	8
1	36333	10	6
2	48	0.01	0
2	69	0.02	111
2	102	0.03	0
2	139	0.04	43
2	176	0.05	3
2	219	0.06	81
2	250	0.07	41
2	285	0.08	0
2	310	0.09	38
2	343	0.1	21
2	390	0.11	0
2	429	0.12	100
2	466	0.13	22
2	497	0.14	8
2	536	0.15	0
2	571	0.16	0
2	608	0.17	0
2	657	0.18	115
2	690	0.19	34
2	731	0.2	67
2	782	0.21	22
2	821	0.22	67
2	862	0.23	85
2	887	0.24	135
2	926	0.25	0
2	963	0.26	5
2	1012	0.27	48
2	1051	0.28	64
2	1098	0.29	127
2	1125	0.3	0
2	1164	0.31	66
2	1191	0.32	123
2	1230	0.33	74
2	1251	0.34	122
2	1282	0.35	0
2	1323	0.36	128
2	1356	0.37	234
2	1381	0.38	65
2	1414	0.39	0
2	1461	0.4	80
2	1492	0.41	0
2	1537	0.42	19
2	1570	0.43	0
2	1605	0.44	55
2	1644	0.45	0
2	1679	0.46	77
2	1714	0.47	238
2	1753	0.48	66
2	1790	0.49	0
2	1823	0.5	46
2	1866	0.51	0
2	1909	0.52	10
2	1948	0.53	13
2	1983	0.54	11
2	2010	0.55	59
2	2041	0.56	32
2	2078	0.57	31
2	2105	0.58	191
2	2134	0.59	0
2	2159	0.6	0
2	2212	0.61	0
2	2257	0.62	143
2	2294	0.63	59
2	2323	0.64	41
2	2356	0.65	51
2	2383	0.66	9
2	2414	0.67	36
2	2451	0.68	70
2	2482	0.69	9
2	2519	0.7	16
2	2552	0.71	0
2	2583	0.72	87
2	2620	0.73	147
2	2651	0.74	0
2	2678	0.75	35
2	2725	0.76	96
2	2746	0.77	0
2	2789	0.78	39
2	2826	0.79	0
2	2853	0.8	125
2	2906	0.81	35
2	2939	0.82	68
2	2966	0.83	0
2	2999	0.84	0
2	3026	0.85	29
2	3053	0.86	111
2	3096	0.87	27
2	3119	0.88	0
2	3154	0.89	0
2	3189	0.9	149
2	3210	0.91	47
2	3247	0.92	0
2	3292	0.93	51
2	3321	0.94	59
2	3354	0.95	0
2	3385	0.96	3
2	3422	0.97	0
2	3453	0.98	29
2	3496	0.99	12
2	3553	1	32
2	3586	1.01	0
2	3619	1.02	0
2	3648	1.03	68
2	3681	1.04	0
2	3726	1.05	176
2	3755	1.06	94
2	3792	1.07	0
2	3829	1.08	14
2	3880	1.09	9
2	3913	1.1	93
2	3950	1.11	16
2	3991	1.12	48
2	4034	1.13	0
2	4075	1.14	18
2	4120	1.15	0
2	4165	1.16	1
2	4204	1.17	85
2	4251	1.18	311
2	4284	1.19	76
2	4335	1.2	48
2	4374	1.21	47
2	4411	1.22	22
2	4442	1.23	133
2	4477	1.24	0
2	4494	1.25	3
2	4531	1.26	60
2	4566	1.27	0
2	4597	1.28	0
2	4630	1.29	47
2	4671	1.3	167
2	4714	1.31	26
2	4747	1.32	68
2	4792	1.33	53
2	4825	1.34	0
2	4872	1.35	70
2	4909	1.36	0
2	4952	1.37	0
2	4977	1.38	58
2	5002	1.39	46
2	5047	1.4	57
2	5078	1.41	21
2	5103	1.42	0
2	5138	1.43	82
2	5177	1.44	0
2	5210	1.45	0
2	5257	1.46	125
2	5284	1.47	78
2	5321	1.48	1
2	5350	1.49	12
2	5405	1.5	34
2	5452	1.51	0
2	5483	1.52	141
2	5510	1.53	11
2	5555	1.54	34
2	5592	1.55	75
2	5651	1.56	75
2	5684	1.57	0
2	5713	1.58	0
2	5758	1.59	266
2	5787	1.6	0
2	5820	1.61	0
2	5867	1.62	67
2	5890	1.63	0
2	5929	1.64	77
2	5962	1.65	94
2	6001	1.66	10
2	6044	1.67	0
2	6087	1.68	275
2	6122	1.69	127
2	6167	1.7	62
2	6196	1.71	107
2	6225	1.72	2
2	6262	1.73	21
2	6305	1.74	122
2	6342	1.75	83
2	6387	1.76	15
2	6414	1.77	25
2	6447	1.78	0
2	6496	1.79	0
2	6525	1.8	12
2	6558	1.81	0
2	6591	1.82	0
2	6632	1.83	76
2	6673	1.84	0
2	6706	1.85	0
2	6745	1.86	0
2	6784	1.87	73
2	6821	1.88	307
2	6866	1.89	68
2	6909	1.9	159
2	6944	1.91	78
2	6979	1.92	0
2	7020	1.93	0
2	7061	1.94	68
2	7096	1.95	88
2	7133	1.96	0
2	7158	1.97	133
2	7193	1.98	70
2	7222	1.99	56
2	7253	2	58
2	7282	2.01	0
2	7309	2.02	76
2	7346	2.03	113
2	7371	2.04	0
2	7400	2.05	0
2	7441	2.06	61
2	7478	2.07	0
2	7513	2.08	0
2	7562	2.09	118
2	7597	2.1	43
2	7622	2.11	0
2	7659	2.12	141
2	7698	2.13	55
2	7725	2.14	0
2	7768	2.15	72
2	7795	2.16	112
2	7826	2.17	0
2	7857	2.18	64
2	7894	2.19	0
2	7929	2.2	198
2	7958	2.21	26
2	7989	2.22	81
2	8030	2.23	18
2	8067	2.24	0
2	8100	2.25	0
2	8137	2.26	136
2	8164	2.27	170
2	8201	2.28	0
2	8238	2.29	78
2	8273	2.3	185
2	8304	2.31	0
2	8341	2.32	0
2	8376	2.33	0
2	8425	2.34	125
2	8456	2.35	179
2	8483	2.36	130
2	8524	2.37	0
2	8583	2.38	52
2	8614	2.39	9
2	8649	2.4	76
2	8680	2.41	116
2	8717	2.42	36
2	8756	2.43	27
2	8787	2.44	0
2	8818	2.45	0
2	8861	2.46	93
2	8894	2.47	143
2	8923	2.48	0
2	8962	2.49	0
2	9005	2.5	163
2	9044	2.51	58
2	9079	2.52	149
2	9106	2.53	0
2	9133	2.54	9
2	9174	2.55	4
2	9217	2.56	0
2	9252	2.57	93
2	9285	2.58	113
2	9314	2.59	181
2	9345	2.6	1
2	9380	2.61	0
2	9415	2.62	0
2	9442	2.63	90
2	9475	2.64	0
2	9502	2.65	75
2	9537	2.66	0
2	9574	2.67	67
2	9609	2.68	0
2	9652	2.69	50
2	9689	2.7	95
2	9726	2.71	0
2	9753	2.72	34
2	9784	2.73	150
2	9833	2.74	0
2	9876	2.75	189
2	9909	2.76	0
2	9958	2.77	51
2	9999	2.78	0
2	10034	2.79	0
2	10075	2.8	0
2	10114	2.81	19
2	10145	2.82	153
2	10178	2.83	0
2	10211	2.84	84
2	10238	2.85	0
2	10267	2.86	208
2	10306	2.87	59
2	10335	2.88	45
2	10386	2.89	68
2	10419	2.9	0
2	10452	2.91	0
2	10483	2.92	75
2	10526	2.93	131
2	10565	2.94	105
2	10602	2.95	0
2	10643	2.96	254
2	10688	2.97	126
2	10725	2.98	0
2	10768	2.99	0
2	10795	3	0
2	10832	3.01	6
2	10871	3.02	0
2	10906	3.03	38
2	10955	3.04	35
2	10992	3.05	93
2	11039	3.06	49
2	11086	3.07	19
2	11127	3.08	23
2	11158	3.09	62
2	11189	3.1	24
2	11226	3.11	104
2	11271	3.12	0
2	11320	3.13	9
2	11363	3.14	0
2	11414	3.15	98
2	11449	3.16	0
2	11484	3.17	0
2	11523	3.18	37
2	11554	3.19	102
2	11603	3.2	132
2	11652	3.21	46
2	11689	3.22	0
2	11720	3.23	55
2	11749	3.24	0
2	11784	3.25	232
2	11825	3.26	140
2	11868	3.27	0
2	11895	3.28	0
2	11928	3.29	83
2	11959	3.3	11
2	11994	3.31	0
2	12045	3.32	0
2	12088	3.33	68
2	12127	3.34	0
2	12162	3.35	36
2	12195	3.36	95
2	12242	3.37	6
2	12271	3.38	48
2	12320	3.39	0
2	12355	3.4	31
2	12390	3.41	18
2	12415	3.42	0
2	12454	3.43	0
2	12485	3.44	75
2	12514	3.45	80
2	12545	3.46	0
2	12578	3.47	53
2	12619	3.48	69
2	12650	3.49	64
2	12683	3.5	95
2	12736	3.51	8
2	12763	3.52	23
2	12808	3.53	0
2	12847	3.54	67
2	12892	3.55	182
2	12931	3.56	0
2	12968	3.57	0
2	13015	3.58	0
2	13042	3.59	64
2	13089	3.6	0
2	13134	3.61	109
2	13175	3.62	0
2	13212	3.63	0
2	13241	3.64	66
2	13278	3.65	0
2	13317	3.66	56
2	13352	3.67	234
2	13395	3.68	67
2	13424	3.69	0
2	13461	3.7	17
2	13488	3.71	48
2	13525	3.72	65
2	13558	3.73	91
2	13581	3.74	61
2	13612	3.75	5
2	13645	3.76	4
2	13680	3.77	0
2	13711	3.78	66
2	13758	3.79	65
2	13803	3.8	11
2	13840	3.81	55
2	13875	3.82	0
2	13914	3.83	113
2	13947	3.84	28
2	13982	3.85	21
2	14027	3.86	62
2	14068	3.87	3
2	14105	3.88	0
2	14142	3.89	191
2	14169	3.9	0
2	14200	3.91	0
2	14237	3.92	58
2	14278	3.93	0
2	14325	3.94	60
2	14354	3.95	55
2	14409	3.96	60
2	14434	3.97	18
2	14461	3.98	0
2	14502	3.99	252
2	14539	4	0
2	14570	4.01	68
2	14605	4.02	87
2	14638	4.03	0
2	14675	4.04	0
2	14706	4.05	68
2	14735	4.06	0
2	14768	4.07	5
2	14805	4.08	15
2	14832	4.09	0
2	14875	4.1	0
2	14910	4.11	95
2	14929	4.12	0
2	14968	4.13	34
2	15001	4.14	0
2	15058	4.15	0
2	15101	4.16	62
2	15138	4.17	0
2	15179	4.18	206
2	15214	4.19	277
2	15259	4.2	0
2	15296	4.21	0
2	15335	4.22	0
2	15370	4.23	0
2	15415	4.24	50
2	15452	4.25	257
2	15491	4.26	28
2	15522	4.27	103
2	15563	4.28	0
2	15596	4.29	57
2	15631	4.3	64
2	15664	4.31	37
2	15697	4.32	90
2	15736	4.33	0
2	15765	4.34	73
2	15806	4.35	0
2	15843	4.36	0
2	15870	4.37	109
2	15901	4.38	0
2	15942	4.39	0
2	15975	4.4	65
2	16006	4.41	0
2	16059	4.42	144
2	16100	4.43	284
2	16135	4.44	0
2	16178	4.45	0
2	16221	4.46	0
2	16270	4.47	3
2	16299	4.48	91
2	16340	4.49	84
2	16385	4.5	0
2	16430	4.51	142
2	16477	4.52	41
2	16526	4.53	8
2	16565	4.54	0
2	16598	4.55	0
2	16635	4.56	46
2	16672	4.57	25
2	16699	4.58	0
2	16730	4.59	155
2	16773	4.6	18
2	16806	4.61	0
2	16837	4.62	107
2	16878	4.63	97
2	16919	4.64	106
2	16948	4.65	0
2	16983	4.66	11
2	17024	4.67	19
2	17061	4.68	64
2	17100	4.69	64
2	17141	4.7	236
2	17166	4.71	69
2	17207	4.72	0
2	17230	4.73	44
2	17251	4.74	3
2	17292	4.75	93
2	17329	4.76	89
2	17380	4.77	63
2	17409	4.78	128
2	17452	4.79	155
2	17501	4.8	0
2	17536	4.81	45
2	17573	4.82	0
2	17610	4.83	196
2	17641	4.84	0
2	17670	4.85	75
2	17707	4.86	2
2	17754	4.87	21
2	17793	4.88	24
2	17822	4.89	0
2	17853	4.9	0
2	17896	4.91	30
2	17935	4.92	0
2	17978	4.93	160
2	18013	4.94	0
2	18056	4.95	0
2	18081	4.96	0
2	18120	4.97	0
2	18157	4.98	158
2	18194	4.99	229
2	18231	5	10
2	18274	5.01	60
2	18309	5.02	0
2	18346	5.03	53
2	18397	5.04	0
2	18432	5.05	0
2	18475	5.06	106
2	18510	5.07	98
2	18545	5.08	3
2	18576	5.09	0
2	18613	5.1	70
2	18648	5.11	67
2	18687	5.12	0
2	18730	5.13	53
2	18781	5.14	0
2	18810	5.15	157
2	18845	5.16	122
2	18886	5.17	0
2	18915	5.18	21
2	18956	5.19	46
2	18997	5.2	90
2	19034	5.21	22
2	19073	5.22	0
2	19104	5.23	116
2	19133	5.24	0
2	19162	5.25	0
2	19203	5.26	15
2	19250	5.27	138
2	19289	5.28	0
2	19322	5.29	71
2	19367	5.3	0
2	19402	5.31	0
2	19453	5.32	43
2	19480	5.33	56
2	19521	5.34	97
2	19576	5.35	156
2	19607	5.36	0
2	19646	5.37	193
2	19685	5.38	0
2	19724	5.39	27
2	19767	5.4	2
2	19806	5.41	0
2	19841	5.42	10
2	19876	5.43	69
2	19905	5.44	22
2	19944	5.45	0
2	19977	5.46	0
2	20012	5.47	0
2	20047	5.48	81
2	20078	5.49	75
2	20111	5.5	49
2	20142	5.51	45
2	20185	5.52	0
2	20216	5.53	183
2	20257	5.54	0
2	20288	5.55	3
2	20337	5.56	64
2	20374	5.57	0
2	20409	5.58	59
2	20456	5.59	0
2	20501	5.6	190
2	20524	5.61	97
2	20557	5.62	0
2	20598	5.63	0
2	20639	5.64	81
2	20672	5.65	117
2	20709	5.66	68
2	20750	5.67	118
2	20781	5.68	0
2	20824	5.69	0
2	20861	5.7	0
2	20890	5.71	122
2	20921	5.72	109
2	20958	5.73	0
2	20997	5.74	0
2	21034	5.75	133
2	21073	5.76	63
2	21110	5.77	53
2	21159	5.78	0
2	21198	5.79	0
2	21231	5.8	0
2	21262	5.81	0
2	21301	5.82	139
2	21344	5.83	0
2	21377	5.84	0
2	21408	5.85	247
2	21443	5.86	95
2	21472	5.87	0
2	21521	5.88	72
2	21546	5.89	75
2	21585	5.9	156
2	21618	5.91	0
2	21661	5.92	33
2	21698	5.93	68
2	21729	5.94	0
2	21764	5.95	128
2	21795	5.96	22
2	21836	5.97	24
2	21885	5.98	83
2	21920	5.99	90
2	21957	6	50
2	21994	6.01	76
2	22027	6.02	45
2	22058	6.03	0
2	22095	6.04	168
2	22122	6.05	0
2	22157	6.06	25
2	22192	6.07	67
2	22233	6.08	40
2	22274	6.09	0
2	22309	6.1	55
2	22348	6.11	0
2	22383	6.12	28
2	22418	6.13	0
2	22445	6.14	17
2	22486	6.15	0
2	22525	6.16	64
2	22568	6.17	68
2	22601	6.18	100
2	22634	6.19	75
2	22673	6.2	101
2	22706	6.21	0
2	22739	6.22	0
2	22790	6.23	0
2	22827	6.24	3
2	22852	6.25	0
2	22901	6.26	230
2	22936	6.27	68
2	22959	6.28	109
2	22982	6.29	72
2	23021	6.3	59
2	23062	6.31	114
2	23101	6.32	63
2	23140	6.33	47
2	23171	6.34	0
2	23206	6.35	84
2	23249	6.36	126
2	23278	6.37	114
2	23313	6.38	37
2	23356	6.39	95
2	23397	6.4	36
2	23442	6.41	14
2	23473	6.42	0
2	23500	6.43	127
2	23531	6.44	55
2	23576	6.45	63
2	23601	6.46	0
2	23630	6.47	0
2	23679	6.48	50
2	23718	6.49	34
2	23755	6.5	93
2	23788	6.51	16
2	23835	6.52	4
2	23872	6.53	0
2	23911	6.54	54
2	23952	6.55	122
2	23987	6.56	26
2	24028	6.57	0
2	24069	6.58	0
2	24098	6.59	0
2	24133	6.6	169
2	24162	6.61	46
2	24193	6.62	0
2	24228	6.63	107
2	24263	6.64	73
2	24298	6.65	0
2	24335	6.66	99
2	24372	6.67	177
2	24405	6.68	103
2	24444	6.69	0
2	24475	6.7	33
2	24500	6.71	0
2	24531	6.72	105
2	24572	6.73	10
2	24603	6.74	5
2	24632	6.75	9
2	24655	6.76	59
2	24702	6.77	31
2	24737	6.78	153
2	24766	6.79	0
2	24793	6.8	36
2	24832	6.81	26
2	24877	6.82	9
2	24916	6.83	191
2	24949	6.84	108
2	24982	6.85	0
2	25011	6.86	0
2	25042	6.87	27
2	25083	6.88	82
2	25128	6.89	0
2	25157	6.9	8
2	25186	6.91	0
2	25219	6.92	0
2	25250	6.93	0
2	25301	6.94	0
2	25330	6.95	0
2	25363	6.96	0
2	25398	6.97	188
2	25429	6.98	0
2	25470	6.99	0
2	25501	7	33
2	25526	7.01	41
2	25565	7.02	0
2	25600	7.03	11
2	25645	7.04	0
2	25670	7.05	102
2	25711	7.06	0
2	25752	7.07	7
2	25793	7.08	114
2	25840	7.09	0
2	25881	7.1	52
2	25912	7.11	117
2	25943	7.12	50
2	25978	7.13	32
2	26011	7.14	99
2	26048	7.15	59
2	26079	7.16	39
2	26112	7.17	107
2	26141	7.18	0
2	26174	7.19	0
2	26213	7.2	76
2	26260	7.21	78
2	26297	7.22	0
2	26330	7.23	0
2	26369	7.24	110
2	26400	7.25	100
2	26431	7.26	52
2	26468	7.27	0
2	26505	7.28	0
2	26540	7.29	105
2	26571	7.3	125
2	26610	7.31	0
2	26639	7.32	53
2	26672	7.33	0
2	26707	7.34	45
2	26750	7.35	64
2	26783	7.36	36
2	26826	7.37	26
2	26853	7.38	57
2	26888	7.39	0
2	26921	7.4	67
2	26952	7.41	27
2	26999	7.42	90
2	27042	7.43	0
2	27079	7.44	187
2	27112	7.45	16
2	27159	7.46	0
2	27196	7.47	0
2	27243	7.48	214
2	27276	7.49	0
2	27305	7.5	97
2	27328	7.51	0
2	27365	7.52	42
2	27396	7.53	32
2	27421	7.54	34
2	27464	7.55	0
2	27495	7.56	0
2	27548	7.57	0
2	27589	7.58	0
2	27622	7.59	170
2	27659	7.6	0
2	27698	7.61	24
2	27759	7.62	44
2	27796	7.63	0
2	27821	7.64	66
2	27862	7.65	254
2	27897	7.66	139
2	27938	7.67	49
2	27975	7.68	35
2	28018	7.69	54
2	28057	7.7	23
2	28086	7.71	22
2	28129	7.72	55
2	28158	7.73	19
2	28185	7.74	0
2	28210	7.75	0
2	28233	7.76	70
2	28260	7.77	0
2	28295	7.78	0
2	28340	7.79	0
2	28387	7.8	36
2	28422	7.81	63
2	28469	7.82	58
2	28500	7.83	93
2	28533	7.84	0
2	28568	7.85	76
2	28595	7.86	0
2	28636	7.87	114
2	28679	7.88	0
2	28736	7.89	0
2	28775	7.9	182
2	28814	7.91	161
2	28855	7.92	71
2	28892	7.93	75
2	28927	7.94	19
2	28966	7.95	38
2	29001	7.96	74
2	29056	7.97	0
2	29089	7.98	0
2	29110	7.99	193
2	29143	8	63
2	29186	8.01	0
2	29221	8.02	40
2	29258	8.03	124
2	29301	8.04	0
2	29342	8.05	39
2	29371	8.06	0
2	29402	8.07	70
2	29427	8.08	71
2	29448	8.09	0
2	29477	8.1	44
2	29500	8.11	59
2	29535	8.12	33
2	29576	8.13	27
2	29601	8.14	0
2	29624	8.15	20
2	29663	8.16	0
2	29682	8.17	111
2	29719	8.18	0
2	29772	8.19	127
2	29811	8.2	37
2	29852	8.21	244
2	29881	8.22	0
2	29910	8.23	72
2	29939	8.24	0
2	29970	8.25	103
2	30007	8.26	131
2	30034	8.27	125
2	30067	8.28	156
2	30100	8.29	0
2	30143	8.3	0
2	30176	8.31	14
2	30211	8.32	45
2	30252	8.33	0
2	30289	8.34	0
2	30336	8.35	0
2	30365	8.36	20
2	30402	8.37	0
2	30437	8.38	0
2	30472	8.39	158
2	30511	8.4	17
2	30550	8.41	0
2	30587	8.42	15
2	30634	8.43	0
2	30661	8.44	61
2	30706	8.45	0
2	30755	8.46	7
2	30788	8.47	21
2	30823	8.48	0
2	30848	8.49	0
2	30885	8.5	103
2	30922	8.51	78
2	30957	8.52	71
2	31000	8.53	0
2	31027	8.54	69
2	31068	8.55	0
2	31107	8.56	67
2	31142	8.57	86
2	31179	8.58	3
2	31222	8.59	0
2	31257	8.6	0
2	31292	8.61	4
2	31331	8.62	104
2	31360	8.63	106
2	31389	8.64	0
2	31432	8.65	3
2	31453	8.66	0
2	31490	8.67	48
2	31529	8.68	0
2	31558	8.69	1
2	31597	8.7	0
2	31634	8.71	23
2	31665	8.72	25
2	31706	8.73	57
2	31737	8.74	74
2	31774	8.75	1
2	31805	8.76	51
2	31840	8.77	52
2	31879	8.78	0
2	31916	8.79	11
2	31965	8.8	54
2	32000	8.81	36
2	32031	8.82	0
2	32066	8.83	74
2	32099	8.84	0
2	32128	8.85	129
2	32179	8.86	0
2	32204	8.87	0
2	32231	8.88	106
2	32268	8.89	0
2	32319	8.9	202
2	32354	8.91	0
2	32393	8.92	210
2	32432	8.93	0
2	32455	8.94	55
2	32502	8.95	86
2	32553	8.96	129
2	32594	8.97	0
2	32629	8.98	19
2	32672	8.99	0
2	32721	9	13
2	32756	9.01	0
2	32783	9.02	0
2	32822	9.03	143
2	32861	9.04	0
2	32908	9.05	0
2	32951	9.06	70
2	32990	9.07	0
2	33019	9.08	0
2	33054	9.09	0
2	33093	9.1	205
2	33130	9.11	0
2	33185	9.12	36
2	33218	9.13	330
2	33261	9.14	41
2	33316	9.15	0
2	33355	9.16	86
2	33386	9.17	87
2	33421	9.18	0
2	33452	9.19	8
2	33493	9.2	120
2	33530	9.21	6
2	33571	9.22	79
2	33608	9.23	68
2	33653	9.24	14
2	33694	9.25	0
2	33731	9.26	149
2	33768	9.27	92
2	33809	9.28	14
2	33844	9.29	69
2	33877	9.3	89
2	33912	9.31	31
2	33969	9.32	0
2	34004	9.33	4
2	34055	9.34	150
2	34102	9.35	91
2	34133	9.36	5
2	34168	9.37	43
2	34209	9.38	113
2	34250	9.39	0
2	34287	9.4	0
2	34330	9.41	0
2	34367	9.42	68
2	34412	9.43	0
2	34455	9.44	0
2	34488	9.45	39
2	34521	9.46	40
2	34552	9.47	53
2	34569	9.48	143
2	34604	9.49	231
2	34643	9.5	44
2	34682	9.51	0
2	34721	9.52	0
2	34748	9.53	165
2	34781	9.54	0
2	34810	9.55	36
2	34843	9.56	0
2	34880	9.57	44
2	34919	9.58	0
2	34952	9.59	68
2	34987	9.6	70
2	35020	9.61	8
2	35051	9.62	60
2	35090	9.63	34
2	35115	9.64	9
2	35152	9.65	0
2	35185	9.66	32
2	35214	9.67	0
2	35249	9.68	120
2	35282	9.69	0
2	35319	9.7	74
2	35344	9.71	81
2	35383	9.72	0
2	35412	9.73	0
2	35437	9.74	73
2	35460	9.75	0
2	35487	9.76	93
2	35526	9.77	65
2	35549	9.78	70
2	35590	9.79	0
2	35625	9.8	0
2	35644	9.81	0
2	35677	9.82	93
2	35710	9.83	114
2	35757	9.84	0
2	35794	9.85	32
2	35835	9.86	73
2	35864	9.87	2
2	35889	9.88	51
2	35928	9.89	0
2	35965	9.9	64
2	36004	9.91	0
2	36031	9.92	0
2	36066	9.93	73
2	36097	9.94	0
2	36140	9.95	35
2	36183	9.96	128
2	36222	9.97	0
2	36265	9.98	0
2	36298	9.99	58
2	36333	10	0
3	48	0.01	0
3	69	0.02	65
3	102	0.03	16
3	139	0.04	65
3	176	0.05	181
3	219	0.06	0
3	250	0.07	105
3	285	0.08	40
3	310	0.09	0
3	343	0.1	0
3	390	0.11	99
3	429	0.12	72
3	466	0.13	192
3	497	0.14	0
3	536	0.15	24
3	571	0.16	47
3	608	0.17	0
3	657	0.18	108
3	690	0.19	22
3	731	0.2	0
3	782	0.21	68
3	821	0.22	25
3	862	0.23	1
3	887	0.24	108
3	926	0.25	0
3	963	0.26	73
3	1012	0.27	43
3	1051	0.28	144
3	1098	0.29	0
3	1125	0.3	9
3	1164	0.31	154
3	1191	0.32	0
3	1230	0.33	0
3	1251	0.34	24
3	1282	0.35	0
3	1323	0.36	127
3	1356	0.37	77
3	1381	0.38	29
3	1414	0.39	0
3	1461	0.4	30
3	1492	0.41	23
3	1537	0.42	29
3	1570	0.43	0
3	1605	0.44	116
3	1644	0.45	0
3	1679	0.46	26
3	1714	0.47	10
3	1753	0.48	7
3	1790	0.49	34
3	1823	0.5	60
3	1866	0.51	30
3	1909	0.52	0
3	1948	0.53	104
3	1983	0.54	43
3	2010	0.55	0
3	2041	0.56	0
3	2078	0.57	71
3	2105	0.58	0
3	2134	0.59	93
3	2159	0.6	0
3	2212	0.61	78
3	2257	0.62	33
3	2294	0.63	13
3	2323	0.64	184
3	2356	0.65	54
3	2383	0.66	0
3	2414	0.67	48
3	2451	0.68	44
3	2482	0.69	0
3	2519	0.7	0
3	2552	0.71	86
3	2583	0.72	95
3	2620	0.73	0
3	2651	0.74	41
3	2678	0.75	102
3	2725	0.76	0
3	2746	0.77	150
3	2789	0.78	21
3	2826	0.79	0
3	2853	0.8	67
3	2906	0.81	140
3	2939	0.82	61
3	2966	0.83	55
3	2999	0.84	36
3	3026	0.85	0
3	3053	0.86	104
3	3096	0.87	139
3	3119	0.88	113
3	3154	0.89	0
3	3189	0.9	0
3	3210	0.91	0
3	3247	0.92	59
3	3292	0.93	76
3	3321	0.94	64
3	3354	0.95	0
3	3385	0.96	115
3	3422	0.97	18
3	3453	0.98	7
3	3496	0.99	0
3	3553	1	159
3	3586	1.01	66
3	3619	1.02	54
3	3648	1.03	137
3	3681	1.04	1
3	3726	1.05	113
3	3755	1.06	16
3	3792	1.07	89
3	3829	1.08	0
3	3880	1.09	37
3	3913	1.1	212
3	3950	1.11	76
3	3991	1.12	40
3	4034	1.13	0
3	4075	1.14	58
3	4120	1.15	0
3	4165	1.16	140
3	4204	1.17	163
3	4251	1.18	46
3	4284	1.19	24
3	4335	1.2	32
3	4374	1.21	94
3	4411	1.22	0
3	4442	1.23	0
3	4477	1.24	107
3	4494	1.25	94
3	4531	1.26	0
3	4566	1.27	36
3	4597	1.28	0
3	4630	1.29	37
3	4671	1.3	2
3	4714	1.31	47
3	4747	1.32	2
3	4792	1.33	0
3	4825	1.34	0
3	4872	1.35	192
3	4909	1.36	0
3	4952	1.37	0
3	4977	1.38	169
3	5002	1.39	0
3	5047	1.4	3
3	5078	1.41	8
3	5103	1.42	0
3	5138	1.43	170
3	5177	1.44	69
3	5210	1.45	0
3	5257	1.46	96
3	5284	1.47	0
3	5321	1.48	94
3	5350	1.49	50
3	5405	1.5	133
3	5452	1.51	0
3	5483	1.52	0
3	5510	1.53	0
3	5555	1.54	211
3	5592	1.55	0
3	5651	1.56	158
3	5684	1.57	0
3	5713	1.58	0
3	5758	1.59	103
3	5787	1.6	0
3	5820	1.61	0
3	5867	1.62	69
3	5890	1.63	0
3	5929	1.64	0
3	5962	1.65	85
3	6001	1.66	246
3	6044	1.67	144
3	6087	1.68	50
3	6122	1.69	123
3	6167	1.7	5
3	6196	1.71	56
3	6225	1.72	0
3	6262	1.73	0
3	6305	1.74	0
3	6342	1.75	0
3	6387	1.76	270
3	6414	1.77	95
3	6447	1.78	4
3	6496	1.79	2
3	6525	1.8	0
3	6558	1.81	0
3	6591	1.82	0
3	6632	1.83	59
3	6673	1.84	0
3	6706	1.85	46
3	6745	1.86	0
3	6784	1.87	0
3	6821	1.88	88
3	6866	1.89	36
3	6909	1.9	91
3	6944	1.91	160
3	6979	1.92	52
3	7020	1.93	14
3	7061	1.94	72
3	7096	1.95	2
3	7133	1.96	95
3	7158	1.97	0
3	7193	1.98	25
3	7222	1.99	0
3	7253	2	25
3	7282	2.01	0
3	7309	2.02	0
3	7346	2.03	0
3	7371	2.04	23
3	7400	2.05	73
3	7441	2.06	0
3	7478	2.07	127
3	7513	2.08	147
3	7562	2.09	33
3	7597	2.1	95
3	7622	2.11	32
3	7659	2.12	12
3	7698	2.13	43
3	7725	2.14	74
3	7768	2.15	0
3	7795	2.16	0
3	7826	2.17	72
3	7857	2.18	0
3	7894	2.19	127
3	7929	2.2	6
3	7958	2.21	0
3	7989	2.22	129
3	8030	2.23	2
3	8067	2.24	113
3	8100	2.25	71
3	8137	2.26	71
3	8164	2.27	0
3	8201	2.28	29
3	8238	2.29	82
3	8273	2.3	31
3	8304	2.31	0
3	8341	2.32	36
3	8376	2.33	0
3	8425	2.34	40
3	8456	2.35	0
3	8483	2.36	70
3	8524	2.37	225
3	8583	2.38	0
3	8614	2.39	105
3	8649	2.4	62
3	8680	2.41	0
3	8717	2.42	92
3	8756	2.43	66
3	8787	2.44	61
3	8818	2.45	55
3	8861	2.46	0
3	8894	2.47	70
3	8923	2.48	0
3	8962	2.49	0
3	9005	2.5	58
3	9044	2.51	89
3	9079	2.52	3
3	9106	2.53	3
3	9133	2.54	0
3	9174	2.55	0
3	9217	2.56	74
3	9252	2.57	126
3	9285	2.58	65
3	9314	2.59	89
3	9345	2.6	0
3	9380	2.61	0
3	9415	2.62	86
3	9442	2.63	32
3	9475	2.64	0
3	9502	2.65	45
3	9537	2.66	0
3	9574	2.67	0
3	9609	2.68	152
3	9652	2.69	0
3	9689	2.7	125
3	9726	2.71	26
3	9753	2.72	130
3	9784	2.73	0
3	9833	2.74	9
3	9876	2.75	46
3	9909	2.76	0
3	9958	2.77	0
3	9999	2.78	152
3	10034	2.79	16
3	10075	2.8	0
3	10114	2.81	8
3	10145	2.82	0
3	10178	2.83	0
3	10211	2.84	0
3	10238	2.85	39
3	10267	2.86	0
3	10306	2.87	0
3	10335	2.88	106
3	10386	2.89	45
3	10419	2.9	0
3	10452	2.91	185
3	10483	2.92	0
3	10526	2.93	23
3	10565	2.94	68
3	10602	2.95	0
3	10643	2.96	39
3	10688	2.97	55
3	10725	2.98	12
3	10768	2.99	69
3	10795	3	100
3	10832	3.01	0
3	10871	3.02	0
3	10906	3.03	0
3	10955	3.04	101
3	10992	3.05	0
3	11039	3.06	110
3	11086	3.07	80
3	11127	3.08	0
3	11158	3.09	113
3	11189	3.1	0
3	11226	3.11	33
3	11271	3.12	34
3	11320	3.13	0
3	11363	3.14	0
3	11414	3.15	181
3	11449	3.16	163
3	11484	3.17	13
3	11523	3.18	0
3	11554	3.19	124
3	11603	3.2	0
3	11652	3.21	232
3	11689	3.22	24
3	11720	3.23	47
3	11749	3.24	10
3	11784	3.25	0
3	11825	3.26	66
3	11868	3.27	37
3	11895	3.28	0
3	11928	3.29	90
3	11959	3.3	59
3	11994	3.31	16
3	12045	3.32	30
3	12088	3.33	0
3	12127	3.34	60
3	12162	3.35	38
3	12195	3.36	99
3	12242	3.37	0
3	12271	3.38	0
3	12320	3.39	0
3	12355	3.4	0
3	12390	3.41	170
3	12415	3.42	189
3	12454	3.43	0
3	12485	3.44	0
3	12514	3.45	41
3	12545	3.46	45
3	12578	3.47	64
3	12619	3.48	240
3	12650	3.49	25
3	12683	3.5	62
3	12736	3.51	0
3	12763	3.52	0
3	12808	3.53	42
3	12847	3.54	0
3	12892	3.55	56
3	12931	3.56	60
3	12968	3.57	13
3	13015	3.58	0
3	13042	3.59	128
3	13089	3.6	0
3	13134	3.61	73
3	13175	3.62	0
3	13212	3.63	86
3	13241	3.64	0
3	13278	3.65	73
3	13317	3.66	37
3	13352	3.67	7
3	13395	3.68	44
3	13424	3.69	165
3	13461	3.7	0
3	13488	3.71	40
3	13525	3.72	75
3	13558	3.73	46
3	13581	3.74	154
3	13612	3.75	0
3	13645	3.76	0
3	13680	3.77	29
3	13711	3.78	2
3	13758	3.79	0
3	13803	3.8	76
3	13840	3.81	197
3	13875	3.82	0
3	13914	3.83	128
3	13947	3.84	20
3	13982	3.85	0
3	14027	3.86	68
3	14068	3.87	2
3	14105	3.88	78
3	14142	3.89	9
3	14169	3.9	0
3	14200	3.91	259
3	14237	3.92	27
3	14278	3.93	22
3	14325	3.94	55
3	14354	3.95	211
3	14409	3.96	0
3	14434	3.97	41
3	14461	3.98	0
3	14502	3.99	18
3	14539	4	135
3	14570	4.01	192
3	14605	4.02	0
3	14638	4.03	92
3	14675	4.04	76
3	14706	4.05	40
3	14735	4.06	37
3	14768	4.07	0
3	14805	4.08	0
3	14832	4.09	0
3	14875	4.1	0
3	14910	4.11	0
3	14929	4.12	61
3	14968	4.13	46
3	15001	4.14	0
3	15058	4.15	116
3	15101	4.16	15
3	15138	4.17	0
3	15179	4.18	236
3	15214	4.19	121
3	15259	4.2	105
3	15296	4.21	40
3	15335	4.22	0
3	15370	4.23	0
3	15415	4.24	64
3	15452	4.25	202
3	15491	4.26	93
3	15522	4.27	67
3	15563	4.28	0
3	15596	4.29	0
3	15631	4.3	202
3	15664	4.31	0
3	15697	4.32	16
3	15736	4.33	0
3	15765	4.34	84
3	15806	4.35	9
3	15843	4.36	51
3	15870	4.37	0
3	15901	4.38	0
3	15942	4.39	142
3	15975	4.4	10
3	16006	4.41	0
3	16059	4.42	18
3	16100	4.43	42
3	16135	4.44	57
3	16178	4.45	0
3	16221	4.46	0
3	16270	4.47	0
3	16299	4.48	0
3	16340	4.49	239
3	16385	4.5	78
3	16430	4.51	80
3	16477	4.52	51
3	16526	4.53	84
3	16565	4.54	0
3	16598	4.55	261
3	16635	4.56	72
3	16672	4.57	74
3	16699	4.58	0
3	16730	4.59	0
3	16773	4.6	77
3	16806	4.61	51
3	16837	4.62	16
3	16878	4.63	0
3	16919	4.64	50
3	16948	4.65	69
3	16983	4.66	37
3	17024	4.67	0
3	17061	4.68	47
3	17100	4.69	42
3	17141	4.7	52
3	17166	4.71	121
3	17207	4.72	0
3	17230	4.73	107
3	17251	4.74	70
3	17292	4.75	0
3	17329	4.76	6
3	17380	4.77	66
3	17409	4.78	13
3	17452	4.79	39
3	17501	4.8	49
3	17536	4.81	0
3	17573	4.82	112
3	17610	4.83	0
3	17641	4.84	0
3	17670	4.85	38
3	17707	4.86	0
3	17754	4.87	0
3	17793	4.88	59
3	17822	4.89	66
3	17853	4.9	0
3	17896	4.91	114
3	17935	4.92	116
3	17978	4.93	0
3	18013	4.94	31
3	18056	4.95	82
3	18081	4.96	130
3	18120	4.97	0
3	18157	4.98	0
3	18194	4.99	114
3	18231	5	43
3	18274	5.01	39
3	18309	5.02	101
3	18346	5.03	63
3	18397	5.04	78
3	18432	5.05	59
3	18475	5.06	67
3	18510	5.07	46
3	18545	5.08	22
3	18576	5.09	16
3	18613	5.1	0
3	18648	5.11	0
3	18687	5.12	66
3	18730	5.13	10
3	18781	5.14	49
3	18810	5.15	0
3	18845	5.16	134
3	18886	5.17	15
3	18915	5.18	184
3	18956	5.19	42
3	18997	5.2	38
3	19034	5.21	0
3	19073	5.22	19
3	19104	5.23	32
3	19133	5.24	143
3	19162	5.25	39
3	19203	5.26	0
3	19250	5.27	0
3	19289	5.28	0
3	19322	5.29	228
3	19367	5.3	47
3	19402	5.31	121
3	19453	5.32	89
3	19480	5.33	125
3	19521	5.34	51
3	19576	5.35	63
3	19607	5.36	78
3	19646	5.37	85
3	19685	5.38	33
3	19724	5.39	0
3	19767	5.4	133
3	19806	5.41	0
3	19841	5.42	31
3	19876	5.43	29
3	19905	5.44	0
3	19944	5.45	0
3	19977	5.46	243
3	20012	5.47	0
3	20047	5.48	67
3	20078	5.49	74
3	20111	5.5	23
3	20142	5.51	0
3	20185	5.52	0
3	20216	5.53	195
3	20257	5.54	0
3	20288	5.55	82
3	20337	5.56	0
3	20374	5.57	171
3	20409	5.58	31
3	20456	5.59	0
3	20501	5.6	103
3	20524	5.61	4
3	20557	5.62	0
3	20598	5.63	0
3	20639	5.64	72
3	20672	5.65	152
3	20709	5.66	61
3	20750	5.67	36
3	20781	5.68	51
3	20824	5.69	0
3	20861	5.7	0
3	20890	5.71	0
3	20921	5.72	0
3	20958	5.73	57
3	20997	5.74	114
3	21034	5.75	103
3	21073	5.76	65
3	21110	5.77	0
3	21159	5.78	0
3	21198	5.79	0
3	21231	5.8	120
3	21262	5.81	0
3	21301	5.82	0
3	21344	5.83	285
3	21377	5.84	45
3	21408	5.85	66
3	21443	5.86	54
3	21472	5.87	67
3	21521	5.88	0
3	21546	5.89	0
3	21585	5.9	30
3	21618	5.91	52
3	21661	5.92	26
3	21698	5.93	215
3	21729	5.94	0
3	21764	5.95	59
3	21795	5.96	57
3	21836	5.97	0
3	21885	5.98	134
3	21920	5.99	0
3	21957	6	0
3	21994	6.01	22
3	22027	6.02	68
3	22058	6.03	0
3	22095	6.04	31
3	22122	6.05	98
3	22157	6.06	64
3	22192	6.07	64
3	22233	6.08	65
3	22274	6.09	67
3	22309	6.1	18
3	22348	6.11	95
3	22383	6.12	0
3	22418	6.13	50
3	22445	6.14	0
3	22486	6.15	0
3	22525	6.16	57
3	22568	6.17	74
3	22601	6.18	0
3	22634	6.19	18
3	22673	6.2	0
3	22706	6.21	0
3	22739	6.22	97
3	22790	6.23	46
3	22827	6.24	29
3	22852	6.25	0
3	22901	6.26	64
3	22936	6.27	41
3	22959	6.28	74
3	22982	6.29	75
3	23021	6.3	0
3	23062	6.31	65
3	23101	6.32	79
3	23140	6.33	59
3	23171	6.34	76
3	23206	6.35	47
3	23249	6.36	0
3	23278	6.37	74
3	23313	6.38	86
3	23356	6.39	7
3	23397	6.4	33
3	23442	6.41	70
3	23473	6.42	0
3	23500	6.43	74
3	23531	6.44	0
3	23576	6.45	70
3	23601	6.46	185
3	23630	6.47	0
3	23679	6.48	14
3	23718	6.49	38
3	23755	6.5	116
3	23788	6.51	37
3	23835	6.52	38
3	23872	6.53	33
3	23911	6.54	55
3	23952	6.55	23
3	23987	6.56	0
3	24028	6.57	0
3	24069	6.58	17
3	24098	6.59	0
3	24133	6.6	179
3	24162	6.61	0
3	24193	6.62	73
3	24228	6.63	40
3	24263	6.64	41
3	24298	6.65	0
3	24335	6.66	0
3	24372	6.67	64
3	24405	6.68	100
3	24444	6.69	0
3	24475	6.7	377
3	24500	6.71	0
3	24531	6.72	0
3	24572	6.73	0
3	24603	6.74	50
3	24632	6.75	68
3	24655	6.76	18
3	24702	6.77	11
3	24737	6.78	23
3	24766	6.79	89
3	24793	6.8	0
3	24832	6.81	0
3	24877	6.82	26
3	24916	6.83	37
3	24949	6.84	67
3	24982	6.85	110
3	25011	6.86	73
3	25042	6.87	0
3	25083	6.88	134
3	25128	6.89	0
3	25157	6.9	195
3	25186	6.91	0
3	25219	6.92	0
3	25250	6.93	133
3	25301	6.94	19
3	25330	6.95	0
3	25363	6.96	0
3	25398	6.97	258
3	25429	6.98	49
3	25470	6.99	15
3	25501	7	52
3	25526	7.01	9
3	25565	7.02	16
3	25600	7.03	11
3	25645	7.04	0
3	25670	7.05	118
3	25711	7.06	29
3	25752	7.07	0
3	25793	7.08	169
3	25840	7.09	75
3	25881	7.1	174
3	25912	7.11	0
3	25943	7.12	58
3	25978	7.13	0
3	26011	7.14	0
3	26048	7.15	69
3	26079	7.16	0
3	26112	7.17	179
3	26141	7.18	3
3	26174	7.19	69
3	26213	7.2	0
3	26260	7.21	97
3	26297	7.22	152
3	26330	7.23	36
3	26369	7.24	21
3	26400	7.25	0
3	26431	7.26	279
3	26468	7.27	0
3	26505	7.28	0
3	26540	7.29	75
3	26571	7.3	26
3	26610	7.31	80
3	26639	7.32	72
3	26672	7.33	64
3	26707	7.34	4
3	26750	7.35	0
3	26783	7.36	135
3	26826	7.37	24
3	26853	7.38	33
3	26888	7.39	75
3	26921	7.4	0
3	26952	7.41	0
3	26999	7.42	54
3	27042	7.43	58
3	27079	7.44	148
3	27112	7.45	0
3	27159	7.46	0
3	27196	7.47	106
3	27243	7.48	115
3	27276	7.49	0
3	27305	7.5	29
3	27328	7.51	0
3	27365	7.52	27
3	27396	7.53	0
3	27421	7.54	10
3	27464	7.55	125
3	27495	7.56	101
3	27548	7.57	53
3	27589	7.58	0
3	27622	7.59	125
3	27659	7.6	0
3	27698	7.61	13
3	27759	7.62	77
3	27796	7.63	0
3	27821	7.64	0
3	27862	7.65	51
3	27897	7.66	56
3	27938	7.67	0
3	27975	7.68	19
3	28018	7.69	67
3	28057	7.7	40
3	28086	7.71	37
3	28129	7.72	0
3	28158	7.73	29
3	28185	7.74	0
3	28210	7.75	0
3	28233	7.76	0
3	28260	7.77	41
3	28295	7.78	161
3	28340	7.79	59
3	28387	7.8	130
3	28422	7.81	177
3	28469	7.82	0
3	28500	7.83	199
3	28533	7.84	0
3	28568	7.85	113
3	28595	7.86	0
3	28636	7.87	71
3	28679	7.88	56
3	28736	7.89	64
3	28775	7.9	0
3	28814	7.91	135
3	28855	7.92	53
3	28892	7.93	0
3	28927	7.94	27
3	28966	7.95	72
3	29001	7.96	170
3	29056	7.97	254
3	29089	7.98	84
3	29110	7.99	0
3	29143	8	0
3	29186	8.01	49
3	29221	8.02	0
3	29258	8.03	230
3	29301	8.04	0
3	29342	8.05	0
3	29371	8.06	230
3	29402	8.07	0
3	29427	8.08	123
3	29448	8.09	99
3	29477	8.1	68
3	29500	8.11	68
3	29535	8.12	0
3	29576	8.13	22
3	29601	8.14	0
3	29624	8.15	80
3	29663	8.16	0
3	29682	8.17	50
3	29719	8.18	72
3	29772	8.19	46
3	29811	8.2	33
3	29852	8.21	9
3	29881	8.22	0
3	29910	8.23	67
3	29939	8.24	152
3	29970	8.25	0
3	30007	8.26	28
3	30034	8.27	84
3	30067	8.28	0
3	30100	8.29	0
3	30143	8.3	70
3	30176	8.31	85
3	30211	8.32	63
3	30252	8.33	114
3	30289	8.34	19
3	30336	8.35	0
3	30365	8.36	19
3	30402	8.37	51
3	30437	8.38	0
3	30472	8.39	178
3	30511	8.4	24
3	30550	8.41	0
3	30587	8.42	0
3	30634	8.43	0
3	30661	8.44	129
3	30706	8.45	0
3	30755	8.46	0
3	30788	8.47	40
3	30823	8.48	36
3	30848	8.49	86
3	30885	8.5	24
3	30922	8.51	74
3	30957	8.52	0
3	31000	8.53	0
3	31027	8.54	0
3	31068	8.55	219
3	31107	8.56	21
3	31142	8.57	23
3	31179	8.58	171
3	31222	8.59	0
3	31257	8.6	0
3	31292	8.61	7
3	31331	8.62	64
3	31360	8.63	0
3	31389	8.64	57
3	31432	8.65	44
3	31453	8.66	36
3	31490	8.67	20
3	31529	8.68	0
3	31558	8.69	0
3	31597	8.7	114
3	31634	8.71	124
3	31665	8.72	0
3	31706	8.73	0
3	31737	8.74	14
3	31774	8.75	99
3	31805	8.76	62
3	31840	8.77	51
3	31879	8.78	33
3	31916	8.79	17
3	31965	8.8	22
3	32000	8.81	19
3	32031	8.82	0
3	32066	8.83	0
3	32099	8.84	0
3	32128	8.85	0
3	32179	8.86	0
3	32204	8.87	0
3	32231	8.88	0
3	32268	8.89	0
3	32319	8.9	112
3	32354	8.91	0
3	32393	8.92	275
3	32432	8.93	0
3	32455	8.94	17
3	32502	8.95	0
3	32553	8.96	144
3	32594	8.97	0
3	32629	8.98	28
3	32672	8.99	0
3	32721	9	182
3	32756	9.01	105
3	32783	9.02	54
3	32822	9.03	66
3	32861	9.04	0
3	32908	9.05	104
3	32951	9.06	93
3	32990	9.07	133
3	33019	9.08	0
3	33054	9.09	0
3	33093	9.1	161
3	33130	9.11	0
3	33185	9.12	0
3	33218	9.13	0
3	33261	9.14	13
3	33316	9.15	0
3	33355	9.16	90
3	33386	9.17	0
3	33421	9.18	46
3	33452	9.19	37
3	33493	9.2	18
3	33530	9.21	62
3	33571	9.22	50
3	33608	9.23	88
3	33653	9.24	59
3	33694	9.25	0
3	33731	9.26	0
3	33768	9.27	0
3	33809	9.28	40
3	33844	9.29	60
3	33877	9.3	48
3	33912	9.31	0
3	33969	9.32	0
3	34004	9.33	15
3	34055	9.34	98
3	34102	9.35	11
3	34133	9.36	59
3	34168	9.37	61
3	34209	9.38	0
3	34250	9.39	0
3	34287	9.4	9
3	34330	9.41	0
3	34367	9.42	39
3	34412	9.43	44
3	34455	9.44	0
3	34488	9.45	0
3	34521	9.46	303
3	34552	9.47	0
3	34569	9.48	0
3	34604	9.49	0
3	34643	9.5	39
3	34682	9.51	63
3	34721	9.52	13
3	34748	9.53	74
3	34781	9.54	92
3	34810	9.55	0
3	34843	9.56	47
3	34880	9.57	17
3	34919	9.58	0
3	34952	9.59	148
3	34987	9.6	43
3	35020	9.61	41
3	35051	9.62	42
3	35090	9.63	0
3	35115	9.64	111
3	35152	9.65	0
3	35185	9.66	32
3	35214	9.67	62
3	35249	9.68	23
3	35282	9.69	0
3	35319	9.7	67
3	35344	9.71	58
3	35383	9.72	65
3	35412	9.73	50
3	35437	9.74	9
3	35460	9.75	29
3	35487	9.76	0
3	35526	9.77	0
3	35549	9.78	71
3	35590	9.79	0
3	35625	9.8	0
3	35644	9.81	0
3	35677	9.82	92
3	35710	9.83	51
3	35757	9.84	0
3	35794	9.85	119
3	35835	9.86	54
3	35864	9.87	0
3	35889	9.88	34
3	35928	9.89	61
3	35965	9.9	0
3	36004	9.91	127
3	36031	9.92	236
3	36066	9.93	89
3	36097	9.94	0
3	36140	9.95	53
3	36183	9.96	200
3	36222	9.97	71
3	36265	9.98	44
3	36298	9.99	247
3	36333	10	66
4	48	0.01	0
4	69	0.02	120
4	102	0.03	61
4	139	0.04	73
4	176	0.05	14
4	219	0.06	0
4	250	0.07	42
4	285	0.08	0
4	310	0.09	0
4	343	0.1	0
4	390	0.11	135
4	429	0.12	229
4	466	0.13	75
4	497	0.14	61
4	536	0.15	240
4	571	0.16	65
4	608	0.17	0
4	657	0.18	0
4	690	0.19	17
4	731	0.2	71
4	782	0.21	9
4	821	0.22	26
4	862	0.23	0
4	887	0.24	0
4	926	0.25	137
4	963	0.26	0
4	1012	0.27	25
4	1051	0.28	0
4	1098	0.29	190
4	1125	0.3	25
4	1164	0.31	0
4	1191	0.32	0
4	1230	0.33	0
4	1251	0.34	0
4	1282	0.35	0
4	1323	0.36	0
4	1356	0.37	0
4	1381	0.38	52
4	1414	0.39	38
4	1461	0.4	0
4	1492	0.41	16
4	1537	0.42	114
4	1570	0.43	0
4	1605	0.44	0
4	1644	0.45	0
4	1679	0.46	161
4	1714	0.47	0
4	1753	0.48	53
4	1790	0.49	0
4	1823	0.5	23
4	1866	0.51	64
4	1909	0.52	234
4	1948	0.53	56
4	1983	0.54	60
4	2010	0.55	0
4	2041	0.56	0
4	2078	0.57	0
4	2105	0.58	0
4	2134	0.59	23
4	2159	0.6	41
4	2212	0.61	9
4	2257	0.62	0
4	2294	0.63	147
4	2323	0.64	43
4	2356	0.65	0
4	2383	0.66	16
4	2414	0.67	64
4	2451	0.68	0
4	2482	0.69	19
4	2519	0.7	0
4	2552	0.71	6
4	2583	0.72	0
4	2620	0.73	73
4	2651	0.74	81
4	2678	0.75	14
4	2725	0.76	52
4	2746	0.77	53
4	2789	0.78	66
4	2826	0.79	0
4	2853	0.8	42
4	2906	0.81	49
4	2939	0.82	97
4	2966	0.83	27
4	2999	0.84	72
4	3026	0.85	0
4	3053	0.86	0
4	3096	0.87	38
4	3119	0.88	19
4	3154	0.89	0
4	3189	0.9	51
4	3210	0.91	118
4	3247	0.92	0
4	3292	0.93	0
4	3321	0.94	34
4	3354	0.95	0
4	3385	0.96	5
4	3422	0.97	0
4	3453	0.98	101
4	3496	0.99	0
4	3553	1	0
4	3586	1.01	78
4	3619	1.02	0
4	3648	1.03	5
4	3681	1.04	0
4	3726	1.05	71
4	3755	1.06	0
4	3792	1.07	47
4	3829	1.08	40
4	3880	1.09	10
4	3913	1.1	101
4	3950	1.11	22
4	3991	1.12	0
4	4034	1.13	55
4	4075	1.14	0
4	4120	1.15	127
4	4165	1.16	85
4	4204	1.17	18
4	4251	1.18	38
4	4284	1.19	0
4	4335	1.2	0
4	4374	1.21	431
4	4411	1.22	43
4	4442	1.23	0
4	4477	1.24	212
4	4494	1.25	23
4	4531	1.26	0
4	4566	1.27	0
4	4597	1.28	38
4	4630	1.29	0
4	4671	1.3	73
4	4714	1.31	20
4	4747	1.32	45
4	4792	1.33	168
4	4825	1.34	0
4	4872	1.35	64
4	4909	1.36	50
4	4952	1.37	0
4	4977	1.38	86
4	5002	1.39	111
4	5047	1.4	0
4	5078	1.41	39
4	5103	1.42	0
4	5138	1.43	89
4	5177	1.44	35
4	5210	1.45	0
4	5257	1.46	61
4	5284	1.47	0
4	5321	1.48	97
4	5350	1.49	0
4	5405	1.5	10
4	5452	1.51	4
4	5483	1.52	70
4	5510	1.53	73
4	5555	1.54	61
4	5592	1.55	0
4	5651	1.56	23
4	5684	1.57	183
4	5713	1.58	0
4	5758	1.59	33
4	5787	1.6	0
4	5820	1.61	21
4	5867	1.62	0
4	5890	1.63	141
4	5929	1.64	0
4	5962	1.65	0
4	6001	1.66	0
4	6044	1.67	86
4	6087	1.68	67
4	6122	1.69	34
4	6167	1.7	47
4	6196	1.71	51
4	6225	1.72	2
4	6262	1.73	4
4	6305	1.74	75
4	6342	1.75	109
4	6387	1.76	74
4	6414	1.77	124
4	6447	1.78	15
4	6496	1.79	69
4	6525	1.8	0
4	6558	1.81	0
4	6591	1.82	113
4	6632	1.83	122
4	6673	1.84	0
4	6706	1.85	0
4	6745	1.86	146
4	6784	1.87	0
4	6821	1.88	7
4	6866	1.89	108
4	6909	1.9	0
4	6944	1.91	0
4	6979	1.92	0
4	7020	1.93	0
4	7061	1.94	0
4	7096	1.95	93
4	7133	1.96	0
4	7158	1.97	145
4	7193	1.98	40
4	7222	1.99	0
4	7253	2	0
4	7282	2.01	0
4	7309	2.02	0
4	7346	2.03	160
4	7371	2.04	64
4	7400	2.05	119
4	7441	2.06	28
4	7478	2.07	0
4	7513	2.08	137
4	7562	2.09	0
4	7597	2.1	115
4	7622	2.11	0
4	7659	2.12	49
4	7698	2.13	50
4	7725	2.14	0
4	7768	2.15	144
4	7795	2.16	0
4	7826	2.17	57
4	7857	2.18	0
4	7894	2.19	0
4	7929	2.2	179
4	7958	2.21	0
4	7989	2.22	24
4	8030	2.23	161
4	8067	2.24	20
4	8100	2.25	47
4	8137	2.26	147
4	8164	2.27	8
4	8201	2.28	64
4	8238	2.29	33
4	8273	2.3	0
4	8304	2.31	96
4	8341	2.32	38
4	8376	2.33	36
4	8425	2.34	140
4	8456	2.35	65
4	8483	2.36	72
4	8524	2.37	10
4	8583	2.38	0
4	8614	2.39	0
4	8649	2.4	161
4	8680	2.41	0
4	8717	2.42	47
4	8756	2.43	114
4	8787	2.44	38
4	8818	2.45	84
4	8861	2.46	0
4	8894	2.47	6
4	8923	2.48	0
4	8962	2.49	0
4	9005	2.5	6
4	9044	2.51	71
4	9079	2.52	40
4	9106	2.53	0
4	9133	2.54	3
4	9174	2.55	28
4	9217	2.56	101
4	9252	2.57	0
4	9285	2.58	37
4	9314	2.59	0
4	9345	2.6	104
4	9380	2.61	1
4	9415	2.62	49
4	9442	2.63	47
4	9475	2.64	0
4	9502	2.65	70
4	9537	2.66	55
4	9574	2.67	29
4	9609	2.68	0
4	9652	2.69	0
4	9689	2.7	57
4	9726	2.71	32
4	9753	2.72	36
4	9784	2.73	0
4	9833	2.74	0
4	9876	2.75	0
4	9909	2.76	140
4	9958	2.77	71
4	9999	2.78	0
4	10034	2.79	55
4	10075	2.8	75
4	10114	2.81	63
4	10145	2.82	0
4	10178	2.83	52
4	10211	2.84	67
4	10238	2.85	0
4	10267	2.86	0
4	10306	2.87	46
4	10335	2.88	20
4	10386	2.89	66
4	10419	2.9	0
4	10452	2.91	134
4	10483	2.92	0
4	10526	2.93	21
4	10565	2.94	34
4	10602	2.95	0
4	10643	2.96	81
4	10688	2.97	0
4	10725	2.98	390
4	10768	2.99	168
4	10795	3	73
4	10832	3.01	16
4	10871	3.02	0
4	10906	3.03	74
4	10955	3.04	75
4	10992	3.05	148
4	11039	3.06	35
4	11086	3.07	137
4	11127	3.08	6
4	11158	3.09	70
4	11189	3.1	32
4	11226	3.11	126
4	11271	3.12	27
4	11320	3.13	6
4	11363	3.14	0
4	11414	3.15	0
4	11449	3.16	173
4	11484	3.17	66
4	11523	3.18	9
4	11554	3.19	55
4	11603	3.2	0
4	11652	3.21	62
4	11689	3.22	65
4	11720	3.23	5
4	11749	3.24	12
4	11784	3.25	0
4	11825	3.26	0
4	11868	3.27	0
4	11895	3.28	0
4	11928	3.29	122
4	11959	3.3	0
4	11994	3.31	162
4	12045	3.32	43
4	12088	3.33	86
4	12127	3.34	100
4	12162	3.35	20
4	12195	3.36	0
4	12242	3.37	0
4	12271	3.38	0
4	12320	3.39	0
4	12355	3.4	0
4	12390	3.41	0
4	12415	3.42	97
4	12454	3.43	0
4	12485	3.44	86
4	12514	3.45	232
4	12545	3.46	0
4	12578	3.47	211
4	12619	3.48	73
4	12650	3.49	0
4	12683	3.5	57
4	12736	3.51	50
4	12763	3.52	53
4	12808	3.53	0
4	12847	3.54	0
4	12892	3.55	30
4	12931	3.56	117
4	12968	3.57	35
4	13015	3.58	0
4	13042	3.59	0
4	13089	3.6	68
4	13134	3.61	34
4	13175	3.62	0
4	13212	3.63	77
4	13241	3.64	0
4	13278	3.65	26
4	13317	3.66	81
4	13352	3.67	70
4	13395	3.68	0
4	13424	3.69	28
4	13461	3.7	0
4	13488	3.71	63
4	13525	3.72	0
4	13558	3.73	79
4	13581	3.74	0
4	13612	3.75	46
4	13645	3.76	29
4	13680	3.77	0
4	13711	3.78	233
4	13758	3.79	0
4	13803	3.8	48
4	13840	3.81	159
4	13875	3.82	0
4	13914	3.83	51
4	13947	3.84	45
4	13982	3.85	78
4	14027	3.86	0
4	14068	3.87	64
4	14105	3.88	64
4	14142	3.89	52
4	14169	3.9	74
4	14200	3.91	15
4	14237	3.92	0
4	14278	3.93	0
4	14325	3.94	94
4	14354	3.95	0
4	14409	3.96	95
4	14434	3.97	0
4	14461	3.98	0
4	14502	3.99	24
4	14539	4	40
4	14570	4.01	0
4	14605	4.02	0
4	14638	4.03	72
4	14675	4.04	0
4	14706	4.05	0
4	14735	4.06	17
4	14768	4.07	62
4	14805	4.08	10
4	14832	4.09	52
4	14875	4.1	85
4	14910	4.11	47
4	14929	4.12	0
4	14968	4.13	0
4	15001	4.14	188
4	15058	4.15	0
4	15101	4.16	158
4	15138	4.17	196
4	15179	4.18	65
4	15214	4.19	54
4	15259	4.2	0
4	15296	4.21	0
4	15335	4.22	125
4	15370	4.23	0
4	15415	4.24	33
4	15452	4.25	0
4	15491	4.26	98
4	15522	4.27	0
4	15563	4.28	0
4	15596	4.29	0
4	15631	4.3	261
4	15664	4.31	0
4	15697	4.32	102
4	15736	4.33	0
4	15765	4.34	58
4	15806	4.35	0
4	15843	4.36	135
4	15870	4.37	71
4	15901	4.38	31
4	15942	4.39	24
4	15975	4.4	65
4	16006	4.41	62
4	16059	4.42	0
4	16100	4.43	93
4	16135	4.44	105
4	16178	4.45	58
4	16221	4.46	30
4	16270	4.47	11
4	16299	4.48	0
4	16340	4.49	0
4	16385	4.5	51
4	16430	4.51	265
4	16477	4.52	159
4	16526	4.53	54
4	16565	4.54	0
4	16598	4.55	92
4	16635	4.56	0
4	16672	4.57	119
4	16699	4.58	11
4	16730	4.59	100
4	16773	4.6	0
4	16806	4.61	28
4	16837	4.62	0
4	16878	4.63	18
4	16919	4.64	57
4	16948	4.65	42
4	16983	4.66	48
4	17024	4.67	9
4	17061	4.68	22
4	17100	4.69	0
4	17141	4.7	62
4	17166	4.71	78
4	17207	4.72	42
4	17230	4.73	0
4	17251	4.74	227
4	17292	4.75	0
4	17329	4.76	20
4	17380	4.77	53
4	17409	4.78	83
4	17452	4.79	39
4	17501	4.8	61
4	17536	4.81	0
4	17573	4.82	54
4	17610	4.83	67
4	17641	4.84	0
4	17670	4.85	89
4	17707	4.86	0
4	17754	4.87	93
4	17793	4.88	9
4	17822	4.89	0
4	17853	4.9	147
4	17896	4.91	171
4	17935	4.92	0
4	17978	4.93	0
4	18013	4.94	117
4	18056	4.95	107
4	18081	4.96	0
4	18120	4.97	7
4	18157	4.98	0
4	18194	4.99	0
4	18231	5	23
4	18274	5.01	0
4	18309	5.02	0
4	18346	5.03	6
4	18397	5.04	0
4	18432	5.05	43
4	18475	5.06	65
4	18510	5.07	97
4	18545	5.08	73
4	18576	5.09	97
4	18613	5.1	32
4	18648	5.11	93
4	18687	5.12	147
4	18730	5.13	40
4	18781	5.14	0
4	18810	5.15	0
4	18845	5.16	241
4	18886	5.17	0
4	18915	5.18	0
4	18956	5.19	49
4	18997	5.2	0
4	19034	5.21	73
4	19073	5.22	76
4	19104	5.23	0
4	19133	5.24	113
4	19162	5.25	29
4	19203	5.26	0
4	19250	5.27	0
4	19289	5.28	97
4	19322	5.29	169
4	19367	5.3	39
4	19402	5.31	49
4	19453	5.32	98
4	19480	5.33	61
4	19521	5.34	69
4	19576	5.35	91
4	19607	5.36	0
4	19646	5.37	23
4	19685	5.38	0
4	19724	5.39	31
4	19767	5.4	52
4	19806	5.41	101
4	19841	5.42	0
4	19876	5.43	6
4	19905	5.44	74
4	19944	5.45	0
4	19977	5.46	0
4	20012	5.47	42
4	20047	5.48	42
4	20078	5.49	0
4	20111	5.5	174
4	20142	5.51	0
4	20185	5.52	6
4	20216	5.53	75
4	20257	5.54	60
4	20288	5.55	0
4	20337	5.56	0
4	20374	5.57	91
4	20409	5.58	128
4	20456	5.59	46
4	20501	5.6	19
4	20524	5.61	112
4	20557	5.62	0
4	20598	5.63	0
4	20639	5.64	35
4	20672	5.65	0
4	20709	5.66	33
4	20750	5.67	42
4	20781	5.68	0
4	20824	5.69	204
4	20861	5.7	0
4	20890	5.71	0
4	20921	5.72	41
4	20958	5.73	0
4	20997	5.74	55
4	21034	5.75	0
4	21073	5.76	110
4	21110	5.77	0
4	21159	5.78	0
4	21198	5.79	0
4	21231	5.8	223
4	21262	5.81	0
4	21301	5.82	0
4	21344	5.83	79
4	21377	5.84	140
4	21408	5.85	115
4	21443	5.86	216
4	21472	5.87	27
4	21521	5.88	0
4	21546	5.89	59
4	21585	5.9	198
4	21618	5.91	52
4	21661	5.92	142
4	21698	5.93	0
4	21729	5.94	0
4	21764	5.95	41
4	21795	5.96	0
4	21836	5.97	157
4	21885	5.98	206
4	21920	5.99	0
4	21957	6	143
4	21994	6.01	48
4	22027	6.02	74
4	22058	6.03	0
4	22095	6.04	228
4	22122	6.05	53
4	22157	6.06	12
4	22192	6.07	0
4	22233	6.08	25
4	22274	6.09	82
4	22309	6.1	0
4	22348	6.11	56
4	22383	6.12	0
4	22418	6.13	0
4	22445	6.14	100
4	22486	6.15	0
4	22525	6.16	0
4	22568	6.17	0
4	22601	6.18	0
4	22634	6.19	75
4	22673	6.2	0
4	22706	6.21	0
4	22739	6.22	352
4	22790	6.23	44
4	22827	6.24	0
4	22852	6.25	64
4	22901	6.26	0
4	22936	6.27	6
4	22959	6.28	60
4	22982	6.29	0
4	23021	6.3	0
4	23062	6.31	112
4	23101	6.32	0
4	23140	6.33	0
4	23171	6.34	113
4	23206	6.35	52
4	23249	6.36	38
4	23278	6.37	0
4	23313	6.38	157
4	23356	6.39	34
4	23397	6.4	29
4	23442	6.41	58
4	23473	6.42	129
4	23500	6.43	0
4	23531	6.44	104
4	23576	6.45	0
4	23601	6.46	0
4	23630	6.47	0
4	23679	6.48	67
4	23718	6.49	153
4	23755	6.5	0
4	23788	6.51	49
4	23835	6.52	16
4	23872	6.53	0
4	23911	6.54	157
4	23952	6.55	60
4	23987	6.56	20
4	24028	6.57	57
4	24069	6.58	0
4	24098	6.59	0
4	24133	6.6	124
4	24162	6.61	48
4	24193	6.62	0
4	24228	6.63	75
4	24263	6.64	22
4	24298	6.65	28
4	24335	6.66	0
4	24372	6.67	0
4	24405	6.68	52
4	24444	6.69	72
4	24475	6.7	104
4	24500	6.71	34
4	24531	6.72	0
4	24572	6.73	0
4	24603	6.74	0
4	24632	6.75	43
4	24655	6.76	0
4	24702	6.77	60
4	24737	6.78	0
4	24766	6.79	122
4	24793	6.8	54
4	24832	6.81	77
4	24877	6.82	0
4	24916	6.83	62
4	24949	6.84	110
4	24982	6.85	65
4	25011	6.86	0
4	25042	6.87	0
4	25083	6.88	137
4	25128	6.89	0
4	25157	6.9	304
4	25186	6.91	0
4	25219	6.92	150
4	25250	6.93	40
4	25301	6.94	34
4	25330	6.95	0
4	25363	6.96	0
4	25398	6.97	81
4	25429	6.98	29
4	25470	6.99	103
4	25501	7	133
4	25526	7.01	0
4	25565	7.02	28
4	25600	7.03	54
4	25645	7.04	38
4	25670	7.05	24
4	25711	7.06	37
4	25752	7.07	0
4	25793	7.08	56
4	25840	7.09	126
4	25881	7.1	0
4	25912	7.11	109
4	25943	7.12	108
4	25978	7.13	0
4	26011	7.14	121
4	26048	7.15	64
4	26079	7.16	9
4	26112	7.17	32
4	26141	7.18	40
4	26174	7.19	19
4	26213	7.2	47
4	26260	7.21	0
4	26297	7.22	10
4	26330	7.23	2
4	26369	7.24	0
4	26400	7.25	6
4	26431	7.26	23
4	26468	7.27	0
4	26505	7.28	0
4	26540	7.29	65
4	26571	7.3	13
4	26610	7.31	36
4	26639	7.32	0
4	26672	7.33	60
4	26707	7.34	0
4	26750	7.35	95
4	26783	7.36	44
4	26826	7.37	106
4	26853	7.38	0
4	26888	7.39	67
4	26921	7.4	0
4	26952	7.41	0
4	26999	7.42	34
4	27042	7.43	118
4	27079	7.44	0
4	27112	7.45	0
4	27159	7.46	0
4	27196	7.47	105
4	27243	7.48	67
4	27276	7.49	0
4	27305	7.5	139
4	27328	7.51	0
4	27365	7.52	153
4	27396	7.53	0
4	27421	7.54	55
4	27464	7.55	0
4	27495	7.56	81
4	27548	7.57	0
4	27589	7.58	0
4	27622	7.59	124
4	27659	7.6	0
4	27698	7.61	62
4	27759	7.62	0
4	27796	7.63	270
4	27821	7.64	0
4	27862	7.65	0
4	27897	7.66	112
4	27938	7.67	72
4	27975	7.68	73
4	28018	7.69	47
4	28057	7.7	66
4	28086	7.71	143
4	28129	7.72	21
4	28158	7.73	43
4	28185	7.74	31
4	28210	7.75	12
4	28233	7.76	0
4	28260	7.77	47
4	28295	7.78	0
4	28340	7.79	0
4	28387	7.8	60
4	28422	7.81	39
4	28469	7.82	0
4	28500	7.83	116
4	28533	7.84	74
4	28568	7.85	27
4	28595	7.86	52
4	28636	7.87	40
4	28679	7.88	78
4	28736	7.89	48
4	28775	7.9	12
4	28814	7.91	115
4	28855	7.92	0
4	28892	7.93	37
4	28927	7.94	74
4	28966	7.95	0
4	29001	7.96	7
4	29056	7.97	133
4	29089	7.98	56
4	29110	7.99	0
4	29143	8	53
4	29186	8.01	63
4	29221	8.02	84
4	29258	8.03	129
4	29301	8.04	34
4	29342	8.05	0
4	29371	8.06	55
4	29402	8.07	67
4	29427	8.08	24
4	29448	8.09	0
4	29477	8.1	105
4	29500	8.11	144
4	29535	8.12	41
4	29576	8.13	75
4	29601	8.14	62
4	29624	8.15	0
4	29663	8.16	5
4	29682	8.17	70
4	29719	8.18	67
4	29772	8.19	31
4	29811	8.2	27
4	29852	8.21	64
4	29881	8.22	35
4	29910	8.23	0
4	29939	8.24	69
4	29970	8.25	9
4	30007	8.26	0
4	30034	8.27	12
4	30067	8.28	40
4	30100	8.29	56
4	30143	8.3	18
4	30176	8.31	30
4	30211	8.32	0
4	30252	8.33	0
4	30289	8.34	0
4	30336	8.35	94
4	30365	8.36	0
4	30402	8.37	83
4	30437	8.38	0
4	30472	8.39	130
4	30511	8.4	20
4	30550	8.41	75
4	30587	8.42	32
4	30634	8.43	46
4	30661	8.44	0
4	30706	8.45	70
4	30755	8.46	0
4	30788	8.47	43
4	30823	8.48	45
4	30848	8.49	74
4	30885	8.5	68
4	30922	8.51	0
4	30957	8.52	3
4	31000	8.53	0
4	31027	8.54	0
4	31068	8.55	0
4	31107	8.56	0
4	31142	8.57	155
4	31179	8.58	90
4	31222	8.59	0
4	31257	8.6	0
4	31292	8.61	368
4	31331	8.62	66
4	31360	8.63	0
4	31389	8.64	0
4	31432	8.65	167
4	31453	8.66	0
4	31490	8.67	126
4	31529	8.68	50
4	31558	8.69	0
4	31597	8.7	95
4	31634	8.71	0
4	31665	8.72	138
4	31706	8.73	0
4	31737	8.74	58
4	31774	8.75	0
4	31805	8.76	124
4	31840	8.77	122
4	31879	8.78	8
4	31916	8.79	85
4	31965	8.8	39
4	32000	8.81	50
4	32031	8.82	0
4	32066	8.83	97
4	32099	8.84	0
4	32128	8.85	94
4	32179	8.86	0
4	32204	8.87	0
4	32231	8.88	93
4	32268	8.89	0
4	32319	8.9	31
4	32354	8.91	0
4	32393	8.92	62
4	32432	8.93	0
4	32455	8.94	88
4	32502	8.95	192
4	32553	8.96	0
4	32594	8.97	0
4	32629	8.98	98
4	32672	8.99	0
4	32721	9	380
4	32756	9.01	106
4	32783	9.02	24
4	32822	9.03	86
4	32861	9.04	197
4	32908	9.05	0
4	32951	9.06	0
4	32990	9.07	0
4	33019	9.08	0
4	33054	9.09	0
4	33093	9.1	123
4	33130	9.11	0
4	33185	9.12	40
4	33218	9.13	174
4	33261	9.14	5
4	33316	9.15	54
4	33355	9.16	0
[...]
12	34488	9.45	0.044835242042
12	34488	9.45	0.027344019749
12	34488	9.45	0.022666290224999
12	34488	9.45	0.020065145025999
12	34488	9.45	0.012986343542
12	34488	9.45	0.063740616519999
12	34488	9.45	0.063027457040999
12	34488	9.45	0.050582931187
12	34488	9.45	0.049807108812999
12	34488	9.45	0.046118670768999
12	34488	9.45	0.040572032847999
12	34488	9.45	0.039322157449
12	34488	9.45	0.070247618426999
12	34521	9.46	0.075714995519998
12	34521	9.46	0.061975618279
12	34521	9.46	0.052778484992999
12	34521	9.46	0.036985454110999
12	34521	9.46	0.034571743829
12	34521	9.46	0.027810480767998
12	34521	9.46	0.017054202661999
12	34521	9.46	0.016533121142999
12	34521	9.46	0.010320831145
12	34521	9.46	0.015269072132
12	34521	9.46	0.015055954096999
12	34521	9.46	0.041228017154999
12	34521	9.46	0.066668917471999
12	34552	9.47	0.027386035180001
12	34552	9.47	0.026355343303001
12	34552	9.47	0.025748700496001
12	34552	9.47	0.017627489960001
12	34552	9.47	0.016243686772
12	34552	9.47	0.010591316856001
12	34552	9.47	0.013535249749001
12	34552	9.47	0.012496750382001
12	34552	9.47	0.029739117479
12	34552	9.47	0.017579339557001
12	34552	9.47	0.012395358516001
12	34552	9.47	0.019741929332001
12	34552	9.47	0.019625782001
12	34552	9.47	0.018173338464001
12	34552	9.47	0.016763349198001
12	34552	9.47	0.050862700281002
12	34552	9.47	0.074234308164002
12	34552	9.47	0.071121772054001
12	34569	9.48	0.015086645092001
12	34569	9.48	0.010019015297001
12	34569	9.48	0.015192956385
12	34569	9.48	0.018699387987001
12	34569	9.48	0.010514027066
12	34569	9.48	0.055328081236
12	34569	9.48	0.073418430838
12	34569	9.48	0.071310686130001
12	34569	9.48	0.068967678793001
12	34604	9.49	0.015572475681001
12	34604	9.49	0.015889086044
12	34604	9.49	0.014467016604
12	34604	9.49	0.060828749737
12	34604	9.49	0.05905344914
12	34604	9.49	0.058221156903
12	34604	9.49	0.050351564247
12	34604	9.49	0.043633070690001
12	34604	9.49	0.023045932439
12	34604	9.49	0.022543272666001
12	34604	9.49	0.020435752464
12	34604	9.49	0.020363066143
12	34604	9.49	0.069421847339001
12	34604	9.49	0.063569082453
12	34604	9.49	0.059216697694
12	34604	9.49	0.058961345431001
12	34604	9.49	0.057723565961
12	34604	9.49	0.040872861594
12	34604	9.49	0.026047324937
12	34643	9.5	0.016066950011
12	34643	9.5	0.011722724729999
12	34643	9.5	0.019202422696001
12	34643	9.5	0.017290558208
12	34643	9.5	0.011250318021
12	34643	9.5	0.013125723357
12	34643	9.5	0.016609607198999
12	34643	9.5	0.01820573546
12	34643	9.5	0.016827457465
12	34643	9.5	0.017894958679999
12	34643	9.5	0.011266070896999
12	34643	9.5	0.010900209879001
12	34682	9.51	0.019298636077
12	34682	9.51	0.01733700133
12	34682	9.51	0.012705536612
12	34682	9.51	0.016723058069999
12	34682	9.51	0.014108001126999
12	34682	9.51	0.018165769401
12	34682	9.51	0.016649163135
12	34682	9.51	0.016364023186
12	34682	9.51	0.015285165149001
12	34682	9.51	0.011458314734
12	34682	9.51	0.017445730528999
12	34682	9.51	0.014727571896
12	34682	9.51	0.018577687780001
12	34721	9.52	0.012782131502
12	34721	9.52	0.016503591634001
12	34721	9.52	0.019780996937
12	34721	9.52	0.011227233871999
12	34721	9.52	0.015872100275999
12	34721	9.52	0.012336624322
12	34721	9.52	0.019709415171
12	34721	9.52	0.023189547818999
12	34721	9.52	0.017798664592
12	34721	9.52	0.011672593157
12	34748	9.53	0.029426796444
12	34748	9.53	0.027719159363999
12	34748	9.53	0.026670483657
12	34748	9.53	0.022480314232
12	34748	9.53	0.011812057841999
12	34748	9.53	0.013527256591999
12	34748	9.53	0.013157265829999
12	34748	9.53	0.01099895752
12	34748	9.53	0.020005009505999
12	34748	9.53	0.014440421868999
12	34748	9.53	0.012056542471999
12	34748	9.53	0.018459302576
12	34748	9.53	0.016144886497999
12	34748	9.53	0.013572541715
12	34748	9.53	0.012643792465999
12	34781	9.54	0.027654562174
12	34781	9.54	0.027468185364999
12	34781	9.54	0.019464683299999
12	34781	9.54	0.028698403097
12	34781	9.54	0.016151001568
12	34781	9.54	0.029565731463999
12	34781	9.54	0.016070156493999
12	34781	9.54	0.014426918431999
12	34781	9.54	0.015538815899999
12	34781	9.54	0.015770347077
12	34781	9.54	0.016249115334999
12	34810	9.55	0.019306118451999
12	34810	9.55	0.013529230115999
12	34810	9.55	0.019087786163999
12	34810	9.55	0.023864348844999
12	34810	9.55	0.019550576818999
12	34810	9.55	0.011591485989999
12	34810	9.55	0.016933271489998
12	34810	9.55	0.010835922774
12	34810	9.55	0.019571495115999
12	34810	9.55	0.017339785223999
12	34810	9.55	0.016265788162999
12	34810	9.55	0.01857842932
12	34843	9.56	0.018679549843
12	34843	9.56	0.013223729970001
12	34843	9.56	0.019989017293002
12	34880	9.57	0.02120234409
12	34880	9.57	0.019732806901001
12	34880	9.57	0.024357756589
12	34880	9.57	0.025602067909
12	34919	9.58	0.016227019987999
12	34919	9.58	0.028865758874
12	34919	9.58	0.018787967378
12	34919	9.58	0.019739041136001
12	34919	9.58	0.026377499980001
12	34952	9.59	0.015240512670999
12	34952	9.59	0.012180795895
12	34952	9.59	0.038405794756001
12	34952	9.59	0.028188581161
12	34952	9.59	0.021761304770999
12	34952	9.59	0.014161822465001
12	34952	9.59	0.049696397532999
12	34952	9.59	0.046575504372999
12	34952	9.59	0.042455831686
12	34952	9.59	0.038034893378001
12	34952	9.59	0.036919304303
12	34952	9.59	0.019060004153999
12	34987	9.6	0.024866033822001
12	34987	9.6	0.024356681825999
12	34987	9.6	0.021196833643
12	34987	9.6	0.039391137715
12	34987	9.6	0.020868727017
12	34987	9.6	0.016347389906
12	34987	9.6	0.035921120634001
12	34987	9.6	0.033265208241
12	34987	9.6	0.028795937171999
12	34987	9.6	0.019259532694999
12	34987	9.6	0.017583269117999
12	34987	9.6	0.041903269641999
12	34987	9.6	0.040198671869
12	34987	9.6	0.039575505505001
12	34987	9.6	0.031230467168999
12	34987	9.6	0.018020280169999
12	34987	9.6	0.016715810051
12	34987	9.6	0.046905144895
12	34987	9.6	0.043539449533
12	34987	9.6	0.031783112413001
12	34987	9.6	0.024548638844999
12	34987	9.6	0.014981759958999
12	34987	9.6	0.04883746834
12	34987	9.6	0.032220969561999
12	35020	9.61	0.026629428468999
12	35020	9.61	0.025013185523999
12	35020	9.61	0.022397025929999
12	35020	9.61	0.015630766656999
12	35020	9.61	0.038531591924
12	35020	9.61	0.037701246418999
12	35020	9.61	0.03371141219
12	35020	9.61	0.028212901226
12	35020	9.61	0.012576404640999
12	35020	9.61	0.011719133084
12	35020	9.61	0.018495181151
12	35020	9.61	0.013955891603
12	35020	9.61	0.012767914353999
12	35020	9.61	0.012277251617
12	35051	9.62	0.012740864852999
12	35051	9.62	0.014983985039999
12	35051	9.62	0.015539444925999
12	35051	9.62	0.013707481373999
12	35051	9.62	0.029038203554
12	35051	9.62	0.026226990738
12	35051	9.62	0.018912670656999
12	35051	9.62	0.016962225400999
12	35051	9.62	0.026547456129
12	35051	9.62	0.020870417513999
12	35051	9.62	0.017172630586
12	35051	9.62	0.015466304966999
12	35051	9.62	0.012767987405999
12	35051	9.62	0.050340780879999
12	35051	9.62	0.048795647794
12	35051	9.62	0.032694023391999
12	35051	9.62	0.027959911865999
12	35051	9.62	0.016771528143
12	35051	9.62	0.014800737869999
12	35090	9.63	0.016368007207999
12	35090	9.63	0.010588765939
12	35090	9.63	0.013131458747999
12	35090	9.63	0.015821268367999
12	35090	9.63	0.014795741512
12	35090	9.63	0.010931726827
12	35090	9.63	0.015779908121999
12	35090	9.63	0.012191657197999
12	35090	9.63	0.014012791872998
12	35090	9.63	0.019014197664999
12	35115	9.64	0.016804476519001
12	35115	9.64	0.016120660646001
12	35115	9.64	0.012589005962001
12	35115	9.64	0.017396739518
12	35115	9.64	0.011005836961001
12	35115	9.64	0.017305300969001
12	35115	9.64	0.015208654243001
12	35115	9.64	0.011460931566001
12	35115	9.64	0.019534663389001
12	35115	9.64	0.012965161376
12	35115	9.64	0.010223144321001
12	35115	9.64	0.016819659588
12	35115	9.64	0.016262329826001
12	35115	9.64	0.013585069394001
12	35152	9.65	0.018238720982001
12	35152	9.65	0.017688450995001
12	35152	9.65	0.011987863359
12	35152	9.65	0.010708484218
12	35152	9.65	0.018097922588
12	35152	9.65	0.012191483633
12	35152	9.65	0.019782276760001
12	35185	9.66	0.016517328521001
12	35185	9.66	0.015868603459001
12	35185	9.66	0.015119156035
12	35185	9.66	0.013852050736
12	35185	9.66	0.011190370426
12	35185	9.66	0.017356004137
12	35185	9.66	0.012600981945001
12	35185	9.66	0.015680144468
12	35185	9.66	0.018123401757
12	35185	9.66	0.018642713137
12	35185	9.66	0.018280740068001
12	35185	9.66	0.016635065957001
12	35185	9.66	0.013447654323
12	35214	9.67	0.019854810663
12	35214	9.67	0.018942096851999
12	35214	9.67	0.016043094099
12	35214	9.67	0.012211377642
12	35214	9.67	0.012009548287001
12	35214	9.67	0.010541138021001
12	35214	9.67	0.010238913225001
12	35214	9.67	0.014951242777
12	35214	9.67	0.012600139936
12	35249	9.68	0.019808003911001
12	35249	9.68	0.019669461815999
12	35249	9.68	0.01626217253
12	35249	9.68	0.013567389157
12	35249	9.68	0.013648120953
12	35249	9.68	0.019149903571
12	35249	9.68	0.017693760419
12	35249	9.68	0.025146533593
12	35249	9.68	0.024269025184999
12	35249	9.68	0.01191017935
12	35282	9.69	0.016488450772
12	35282	9.69	0.016986234509
12	35282	9.69	0.019448682537
12	35282	9.69	0.018175831508
12	35282	9.69	0.014540498197
12	35319	9.7	0.028734518302999
12	35319	9.7	0.019289880742999
12	35319	9.7	0.026410092480999
12	35319	9.7	0.023437981229
12	35319	9.7	0.023998659044999
12	35319	9.7	0.023724167479999
12	35319	9.7	0.012591817788
12	35319	9.7	0.01173305761
12	35319	9.7	0.03745780163
12	35319	9.7	0.025647791452
12	35319	9.7	0.016592510809
12	35319	9.7	0.012846266983999
12	35319	9.7	0.011605509364999
12	35319	9.7	0.023965070446
12	35319	9.7	0.017835941264
12	35319	9.7	0.01071381857
12	35344	9.71	0.026183774658
12	35344	9.71	0.019596905381999
12	35344	9.71	0.01919536092
12	35344	9.71	0.019227781533999
12	35344	9.71	0.015695946649
12	35344	9.71	0.019381776297999
12	35344	9.71	0.011667553675998
12	35344	9.71	0.025339319640999
12	35344	9.71	0.011796931807
12	35344	9.71	0.018326468136999
12	35344	9.71	0.018226170448999
12	35383	9.72	0.012064128503001
12	35383	9.72	0.011554413180001
12	35383	9.72	0.019450001565001
12	35383	9.72	0.029214836796001
12	35383	9.72	0.028900387756002
12	35383	9.72	0.015606639273001
12	35412	9.73	0.012548541097001
12	35412	9.73	0.011847725453
12	35412	9.73	0.011377798323
12	35412	9.73	0.015076005319001
12	35412	9.73	0.014498064543
12	35412	9.73	0.012427053274001
12	35412	9.73	0.010543232742
12	35412	9.73	0.040027517477
12	35412	9.73	0.038646322750001
12	35412	9.73	0.033710648308
12	35412	9.73	0.029905492044001
12	35412	9.73	0.016261139164001
12	35412	9.73	0.012038974191
12	35437	9.74	0.019890076671
12	35437	9.74	0.027236886208
12	35437	9.74	0.012115946404
12	35437	9.74	0.019045205658001
12	35437	9.74	0.013588090366001
12	35437	9.74	0.033848638407001
12	35437	9.74	0.033766872437001
12	35437	9.74	0.027148750253
12	35437	9.74	0.02269671969
12	35437	9.74	0.016017796936
12	35437	9.74	0.029539688339
12	35437	9.74	0.020551099431
12	35437	9.74	0.013399299871001
12	35437	9.74	0.010829417119
12	35437	9.74	0.016317429416
12	35437	9.74	0.010337216794001
12	35460	9.75	0.018269339630001
12	35460	9.75	0.01718122832
12	35460	9.75	0.013119318139999
12	35460	9.75	0.015459064887001
12	35460	9.75	0.012320754923
12	35460	9.75	0.016392021171001
12	35460	9.75	0.015622146438
12	35487	9.76	0.019921316239
12	35487	9.76	0.012793520443999
12	35487	9.76	0.019124710608001
12	35487	9.76	0.018685195448001
12	35487	9.76	0.019576008450001
12	35526	9.77	0.012035611881
12	35526	9.77	0.019123873799
12	35526	9.77	0.011576205483999
12	35526	9.77	0.017453110771999
12	35526	9.77	0.016621813445999
12	35526	9.77	0.012822527898999
12	35526	9.77	0.010465960367
12	35526	9.77	0.025228214977
12	35526	9.77	0.017290255986
12	35549	9.78	0.015860890295
12	35549	9.78	0.015567299357999
12	35549	9.78	0.018790714787
12	35549	9.78	0.019158050059
12	35549	9.78	0.016200952752
12	35590	9.79	0.029296720428999
12	35590	9.79	0.027298575789999
12	35590	9.79	0.025264326846999
12	35590	9.79	0.015236107887999
12	35590	9.79	0.012928108381999
12	35590	9.79	0.011748089155999
12	35590	9.79	0.012370400406999
12	35590	9.79	0.014380874061999
12	35590	9.79	0.029440738576
12	35590	9.79	0.026946944757999
12	35590	9.79	0.024709974420999
12	35590	9.79	0.022976340232999
12	35590	9.79	0.018121438294999
12	35625	9.8	0.016696913338999
12	35644	9.81	0.029912902756001
12	35644	9.81	0.022490576272
12	35644	9.81	0.017036847103
12	35677	9.82	0.031999827011001
12	35677	9.82	0.021562548239
12	35677	9.82	0.015904403261001
12	35677	9.82	0.015372957919
12	35677	9.82	0.030365821471001
12	35677	9.82	0.020938904971
12	35677	9.82	0.034549209907
12	35677	9.82	0.025725605943
12	35677	9.82	0.020449764442001
12	35677	9.82	0.017718237738
12	35677	9.82	0.035676857749001
12	35677	9.82	0.03226871417
12	35677	9.82	0.026693989454001
12	35677	9.82	0.022675720396
12	35677	9.82	0.039094240113
12	35677	9.82	0.032615798405001
12	35677	9.82	0.026603124714001
12	35677	9.82	0.0247703021
12	35677	9.82	0.023974419383
12	35677	9.82	0.01837139541
12	35677	9.82	0.0371208874
12	35677	9.82	0.034789528566
12	35677	9.82	0.024409391274
12	35677	9.82	0.053553457992001
12	35677	9.82	0.051848981988
12	35677	9.82	0.03155052664
12	35677	9.82	0.031469182923001
12	35677	9.82	0.030221578114
12	35677	9.82	0.020702576904
12	35710	9.83	0.019848467493
12	35710	9.83	0.017012067676001
12	35710	9.83	0.016293210086001
12	35710	9.83	0.019935542848
12	35710	9.83	0.012055462400001
12	35710	9.83	0.014156531603
12	35710	9.83	0.013002820585001
12	35710	9.83	0.014317940206
12	35710	9.83	0.013023216805001
12	35710	9.83	0.019055476575
12	35710	9.83	0.013107862138
12	35757	9.84	0.012511663925
12	35757	9.84	0.019380924163
12	35757	9.84	0.018954281435001
12	35757	9.84	0.018732348661
12	35757	9.84	0.015288663791001
12	35757	9.84	0.018611544176
12	35757	9.84	0.016352661917001
12	35757	9.84	0.012866145258
12	35757	9.84	0.017718895307
12	35757	9.84	0.015213062555
12	35757	9.84	0.011232497521
12	35794	9.85	0.015816039797
12	35794	9.85	0.014806991423999
12	35794	9.85	0.011595435664999
12	35794	9.85	0.019659847671999
12	35794	9.85	0.018044367716
12	35794	9.85	0.019210755065
12	35794	9.85	0.017774625386
12	35794	9.85	0.010279088192
12	35794	9.85	0.018468796953
12	35835	9.86	0.013025935716
12	35835	9.86	0.011679167066999
12	35835	9.86	0.010749236046999
12	35835	9.86	0.018365247810999
12	35835	9.86	0.01202736602
12	35835	9.86	0.010990800158
12	35835	9.86	0.014549848715999
12	35835	9.86	0.01196473257
12	35835	9.86	0.010800247519999
12	35835	9.86	0.015856929027999
12	35835	9.86	0.028248670607999
12	35835	9.86	0.025392085290999
12	35835	9.86	0.020805510658999
12	35835	9.86	0.023022475676999
12	35835	9.86	0.018668342945
12	35835	9.86	0.014009212489
12	35835	9.86	0.010549790899999
12	35835	9.86	0.027975473732999
12	35835	9.86	0.025151719849999
12	35864	9.87	0.010366674351999
12	35864	9.87	0.015238175622999
12	35864	9.87	0.018407988191999
12	35864	9.87	0.018084216371999
12	35864	9.87	0.015650568308999
12	35864	9.87	0.016869691930999
12	35864	9.87	0.013738284831
12	35864	9.87	0.018481588803999
12	35864	9.87	0.017634777787999
12	35864	9.87	0.016424872691999
12	35864	9.87	0.034791264299999
12	35864	9.87	0.033213865597
12	35864	9.87	0.015418818773
12	35889	9.88	0.017066999962999
12	35889	9.88	0.013178864751
12	35889	9.88	0.017554592993999
12	35889	9.88	0.016507790982999
12	35889	9.88	0.010119970869999
12	35889	9.88	0.028467884775999
12	35889	9.88	0.023982845058999
12	35889	9.88	0.022800672185999
12	35889	9.88	0.01221525041
12	35889	9.88	0.010630915350999
12	35889	9.88	0.040816693662999
12	35889	9.88	0.027547468162
12	35889	9.88	0.011989855578999
12	35889	9.88	0.013926283024999
12	35928	9.89	0.010316506321001
12	35928	9.89	0.010187693057
12	35928	9.89	0.013145347806001
12	35928	9.89	0.017104040251001
12	35928	9.89	0.016824355173
12	35928	9.89	0.012793671897001
12	35928	9.89	0.012726580967001
12	35965	9.9	0.019066489517
12	35965	9.9	0.018690941562001
12	35965	9.9	0.015233274397001
12	35965	9.9	0.010635501371
12	35965	9.9	0.018347487753001
12	35965	9.9	0.015489040528001
12	35965	9.9	0.017372077611
12	35965	9.9	0.016298297161001
12	35965	9.9	0.010059668565001
12	35965	9.9	0.019958922931
12	35965	9.9	0.010447547255001
12	36004	9.91	0.014771564232001
12	36004	9.91	0.013776926193
12	36004	9.91	0.012390397782001
12	36004	9.91	0.012089334027001
12	36004	9.91	0.011151633954
12	36004	9.91	0.012969065099
12	36004	9.91	0.019743158185001
12	36004	9.91	0.012506281875
12	36004	9.91	0.01342752895
12	36004	9.91	0.013846588675001
12	36004	9.91	0.012344892132001
12	36004	9.91	0.023724088505
12	36004	9.91	0.027797687770001
12	36004	9.91	0.025311390978001
12	36004	9.91	0.016811255882001
12	36031	9.92	0.016807003304001
12	36031	9.92	0.016466147636001
12	36031	9.92	0.014840419973
12	36031	9.92	0.011491583722
12	36031	9.92	0.01759849556
12	36031	9.92	0.020741661457
12	36031	9.92	0.017595102970001
12	36031	9.92	0.01733826061
12	36031	9.92	0.017049787836999
12	36031	9.92	0.011387029784
12	36031	9.92	0.010126894120001
12	36066	9.93	0.028611036772
12	36066	9.93	0.027307785304
12	36066	9.93	0.023011577825001
12	36066	9.93	0.01978691583
12	36066	9.93	0.014618106656
12	36066	9.93	0.014313771175001
12	36066	9.93	0.027566707305001
12	36066	9.93	0.014138793858001
12	36066	9.93	0.013069313459999
12	36066	9.93	0.017611760627
12	36066	9.93	0.017269758946
12	36066	9.93	0.013968842142999
12	36097	9.94	0.019325958912999
12	36097	9.94	0.014750341164
12	36097	9.94	0.013902637428
12	36097	9.94	0.013879961680999
12	36097	9.94	0.010914000636999
12	36140	9.95	0.028620821227999
12	36140	9.95	0.015993286055
12	36140	9.95	0.011554445058
12	36140	9.95	0.026720525815
12	36140	9.95	0.024072043576
12	36140	9.95	0.014022981518
12	36140	9.95	0.029360089787
12	36140	9.95	0.018100115518999
12	36140	9.95	0.025445183797
12	36140	9.95	0.010912711388
12	36140	9.95	0.025473931822999
12	36140	9.95	0.020297745441999
12	36140	9.95	0.017791010844
12	36140	9.95	0.014899893582999
12	36140	9.95	0.015545055927999
12	36183	9.96	0.02282992184
12	36183	9.96	0.021870619781
12	36183	9.96	0.014978264042
12	36183	9.96	0.013984079562999
12	36183	9.96	0.011428100866999
12	36183	9.96	0.018238260461999
12	36183	9.96	0.017670707605999
12	36183	9.96	0.015171722547999
12	36183	9.96	0.011559241131
12	36183	9.96	0.019002316244999
12	36222	9.97	0.026712856484
12	36222	9.97	0.021037468222001
12	36222	9.97	0.015549583784001
12	36222	9.97	0.010818270104
12	36222	9.97	0.024550933861001
12	36222	9.97	0.020840478386001
12	36222	9.97	0.012686195079
12	36222	9.97	0.011877911562001
12	36222	9.97	0.028987891593001
12	36222	9.97	0.026614767301
12	36222	9.97	0.025539414696
12	36222	9.97	0.016491314443002
12	36222	9.97	0.015048327594
12	36222	9.97	0.014226137893001
12	36222	9.97	0.019347656381001
12	36222	9.97	0.016011113142001
12	36222	9.97	0.015773775634001
12	36222	9.97	0.012722875272001
12	36222	9.97	0.012325097879001
12	36222	9.97	0.011522179639002
12	36222	9.97	0.023142590688002
12	36222	9.97	0.016771980096001
12	36222	9.97	0.012550044100001
12	36222	9.97	0.010666774566001
12	36265	9.98	0.019689347599
12	36265	9.98	0.019953363657001
12	36265	9.98	0.017872243514001
12	36265	9.98	0.010461327609001
12	36265	9.98	0.019467494385001
12	36265	9.98	0.018969050280001
12	36265	9.98	0.018436695044
12	36265	9.98	0.016022800717
12	36265	9.98	0.017863839725001
12	36265	9.98	0.016981065288
12	36265	9.98	0.010250753163001
12	36298	9.99	0.025841652031
12	36298	9.99	0.016602197187
12	36298	9.99	0.013535575981001
12	36298	9.99	0.010431711633
12	36298	9.99	0.028021345612
12	36298	9.99	0.013333504419
12	36298	9.99	0.011718167185
12	36298	9.99	0.018325945882001
12	36298	9.99	0.011839188549001
12	36298	9.99	0.010322451486001
12	36298	9.99	0.021394724346001
12	36298	9.99	0.011687547295001
12	36298	9.99	0.013061006199001
12	36298	9.99	0.019286264785
12	36298	9.99	0.018270035052
12	36298	9.99	0.017427289199
12	36298	9.99	0.017387655503001
12	36298	9.99	0.014513460853001
12	36298	9.99	0.015679775381001
12	36333	10	0.015005365362001
12	36333	10	0.014428462901
12	36333	10	0.010293263494001
12	36333	10	0.01795144153
12	36333	10	0.013334780811
12	36333	10	0.011411144536
12	36333	10	0.010004416243
12	36333	10	0.018215251163999
12	36333	10	0.014750195471001
12	36333	10	0.014060155628

