version 2
run General-2-20191226-12:07:28-23080
attr configname General
attr datetime 20191226-12:07:28
attr experiment General
attr inifile omnetpp.ini
attr iterationvars ""
attr iterationvarsf ""
attr measurement ""
attr network CellularNetwork
attr processid 23080
attr repetition 2
attr replication #2
attr resultdir results
attr runnumber 2
attr seedset 2
param **.nUsers 10
param **.antenna.timeslot 0.01s
param **.user[*].lambda 0.008s

vector 0 CellularNetwork.antenna throughput:vector ETV
attr source throughput
vector 1 CellularNetwork.antenna NumServedUser:vector ETV
attr source NumServedUser
vector 2 CellularNetwork.antenna tptUser-0:vector ETV
vector 3 CellularNetwork.antenna tptUser-1:vector ETV
vector 4 CellularNetwork.antenna tptUser-2:vector ETV
vector 5 CellularNetwork.antenna tptUser-3:vector ETV
vector 6 CellularNetwork.antenna tptUser-4:vector ETV
vector 7 CellularNetwork.antenna tptUser-5:vector ETV
vector 8 CellularNetwork.antenna tptUser-6:vector ETV
vector 9 CellularNetwork.antenna tptUser-7:vector ETV
vector 10 CellularNetwork.antenna tptUser-8:vector ETV
vector 11 CellularNetwork.antenna tptUser-9:vector ETV
vector 12 CellularNetwork.antenna responseTime:vector ETV
attr source responseTime
0	48	0.01	0
0	93	0.02	516
0	124	0.03	510
0	151	0.04	620
0	188	0.05	275
0	217	0.06	517
0	258	0.07	265
0	289	0.08	481
0	342	0.09	381
0	379	0.1	406
0	418	0.11	687
0	457	0.12	524
0	500	0.13	741
0	527	0.14	490
0	558	0.15	376
0	585	0.16	342
0	618	0.17	188
0	659	0.18	463
0	690	0.19	603
0	735	0.2	378
0	774	0.21	635
0	811	0.22	317
0	852	0.23	655
0	883	0.24	338
0	926	0.25	419
0	957	0.26	231
0	994	0.27	273
0	1029	0.28	562
0	1060	0.29	739
0	1095	0.3	183
0	1130	0.31	940
0	1163	0.32	447
0	1202	0.33	231
0	1223	0.34	468
0	1256	0.35	231
0	1285	0.36	285
0	1326	0.37	437
0	1361	0.38	337
0	1394	0.39	263
0	1441	0.4	532
0	1478	0.41	849
0	1511	0.42	644
0	1544	0.43	481
0	1569	0.44	441
0	1610	0.45	129
0	1639	0.46	559
0	1670	0.47	558
0	1707	0.48	436
0	1748	0.49	346
0	1791	0.5	469
0	1832	0.51	1044
0	1871	0.52	511
0	1908	0.53	517
0	1949	0.54	388
0	1986	0.55	551
0	2005	0.56	381
0	2038	0.57	504
0	2079	0.58	271
0	2108	0.59	349
0	2145	0.6	714
0	2186	0.61	289
0	2223	0.62	595
0	2264	0.63	397
0	2293	0.64	488
0	2344	0.65	381
0	2377	0.66	422
0	2420	0.67	520
0	2459	0.68	583
0	2490	0.69	93
0	2525	0.7	682
0	2560	0.71	770
0	2585	0.72	424
0	2622	0.73	148
0	2661	0.74	353
0	2700	0.75	468
0	2731	0.76	305
0	2766	0.77	405
0	2799	0.78	891
0	2826	0.79	199
0	2863	0.8	477
0	2888	0.81	164
0	2933	0.82	375
0	2968	0.83	336
0	3011	0.84	862
0	3048	0.85	507
0	3083	0.86	448
0	3122	0.87	570
0	3151	0.88	531
0	3192	0.89	401
0	3233	0.9	404
0	3268	0.91	475
0	3305	0.92	317
0	3346	0.93	406
0	3383	0.94	1177
0	3412	0.95	542
0	3443	0.96	270
0	3468	0.97	435
0	3501	0.98	297
0	3536	0.99	335
0	3573	1	491
0	3614	1.01	252
0	3643	1.02	509
1	48	0.01	0
1	93	0.02	7
1	124	0.03	6
1	151	0.04	8
1	188	0.05	6
1	217	0.06	8
1	258	0.07	6
1	289	0.08	9
1	342	0.09	6
1	379	0.1	6
1	418	0.11	6
1	457	0.12	6
1	500	0.13	9
1	527	0.14	6
1	558	0.15	5
1	585	0.16	7
1	618	0.17	5
1	659	0.18	6
1	690	0.19	7
1	735	0.2	6
1	774	0.21	8
1	811	0.22	4
1	852	0.23	7
1	883	0.24	4
1	926	0.25	8
1	957	0.26	2
1	994	0.27	3
1	1029	0.28	5
1	1060	0.29	5
1	1095	0.3	4
1	1130	0.31	8
1	1163	0.32	6
1	1202	0.33	8
1	1223	0.34	8
1	1256	0.35	3
1	1285	0.36	5
1	1326	0.37	7
1	1361	0.38	7
1	1394	0.39	5
1	1441	0.4	6
1	1478	0.41	8
1	1511	0.42	8
1	1544	0.43	8
1	1569	0.44	8
1	1610	0.45	2
1	1639	0.46	5
1	1670	0.47	8
1	1707	0.48	5
1	1748	0.49	6
1	1791	0.5	8
1	1832	0.51	8
1	1871	0.52	9
1	1908	0.53	7
1	1949	0.54	4
1	1986	0.55	7
1	2005	0.56	5
1	2038	0.57	4
1	2079	0.58	7
1	2108	0.59	5
1	2145	0.6	8
1	2186	0.61	6
1	2223	0.62	8
1	2264	0.63	8
1	2293	0.64	7
1	2344	0.65	6
1	2377	0.66	5
1	2420	0.67	6
1	2459	0.68	8
1	2490	0.69	2
1	2525	0.7	6
1	2560	0.71	7
1	2585	0.72	7
1	2622	0.73	3
1	2661	0.74	5
1	2700	0.75	6
1	2731	0.76	4
1	2766	0.77	3
1	2799	0.78	8
1	2826	0.79	4
1	2863	0.8	7
1	2888	0.81	3
1	2933	0.82	4
1	2968	0.83	5
1	3011	0.84	4
1	3048	0.85	5
1	3083	0.86	5
1	3122	0.87	8
1	3151	0.88	10
1	3192	0.89	7
1	3233	0.9	7
1	3268	0.91	4
1	3305	0.92	7
1	3346	0.93	4
1	3383	0.94	9
1	3412	0.95	9
1	3443	0.96	7
1	3468	0.97	8
1	3501	0.98	5
1	3536	0.99	7
1	3573	1	6
1	3614	1.01	4
1	3643	1.02	8
2	48	0.01	0
2	93	0.02	36
2	124	0.03	66
2	151	0.04	0
2	188	0.05	39
2	217	0.06	13
2	258	0.07	0
2	289	0.08	0
2	342	0.09	67
2	379	0.1	23
2	418	0.11	0
2	457	0.12	179
2	500	0.13	10
2	527	0.14	91
2	558	0.15	0
2	585	0.16	62
2	618	0.17	0
2	659	0.18	169
2	690	0.19	162
2	735	0.2	127
2	774	0.21	35
2	811	0.22	0
2	852	0.23	148
2	883	0.24	53
2	926	0.25	39
2	957	0.26	0
2	994	0.27	35
2	1029	0.28	0
2	1060	0.29	95
2	1095	0.3	0
2	1130	0.31	27
2	1163	0.32	0
2	1202	0.33	78
2	1223	0.34	9
2	1256	0.35	0
2	1285	0.36	0
2	1326	0.37	52
2	1361	0.38	73
2	1394	0.39	66
2	1441	0.4	57
2	1478	0.41	0
2	1511	0.42	55
2	1544	0.43	73
2	1569	0.44	0
2	1610	0.45	128
2	1639	0.46	147
2	1670	0.47	0
2	1707	0.48	0
2	1748	0.49	13
2	1791	0.5	56
2	1832	0.51	0
2	1871	0.52	30
2	1908	0.53	50
2	1949	0.54	0
2	1986	0.55	58
2	2005	0.56	0
2	2038	0.57	113
2	2079	0.58	0
2	2108	0.59	66
2	2145	0.6	15
2	2186	0.61	31
2	2223	0.62	88
2	2264	0.63	7
2	2293	0.64	0
2	2344	0.65	0
2	2377	0.66	142
2	2420	0.67	0
2	2459	0.68	93
2	2490	0.69	0
2	2525	0.7	115
2	2560	0.71	2
2	2585	0.72	22
2	2622	0.73	0
2	2661	0.74	95
2	2700	0.75	38
2	2731	0.76	0
2	2766	0.77	206
2	2799	0.78	169
2	2826	0.79	0
2	2863	0.8	69
2	2888	0.81	0
2	2933	0.82	0
2	2968	0.83	0
2	3011	0.84	336
2	3048	0.85	0
2	3083	0.86	113
2	3122	0.87	27
2	3151	0.88	49
2	3192	0.89	47
2	3233	0.9	0
2	3268	0.91	111
2	3305	0.92	56
2	3346	0.93	0
2	3383	0.94	81
2	3412	0.95	96
2	3443	0.96	0
2	3468	0.97	0
2	3501	0.98	0
2	3536	0.99	0
2	3573	1	0
2	3614	1.01	78
2	3643	1.02	27
3	48	0.01	0
3	93	0.02	172
3	124	0.03	47
3	151	0.04	37
3	188	0.05	16
3	217	0.06	0
3	258	0.07	0
3	289	0.08	49
3	342	0.09	0
3	379	0.1	0
3	418	0.11	148
3	457	0.12	87
3	500	0.13	64
3	527	0.14	129
3	558	0.15	0
3	585	0.16	18
3	618	0.17	0
3	659	0.18	0
3	690	0.19	41
3	735	0.2	0
3	774	0.21	172
3	811	0.22	91
3	852	0.23	0
3	883	0.24	0
3	926	0.25	55
3	957	0.26	0
3	994	0.27	0
3	1029	0.28	144
3	1060	0.29	9
3	1095	0.3	0
3	1130	0.31	209
3	1163	0.32	63
3	1202	0.33	20
3	1223	0.34	55
3	1256	0.35	0
3	1285	0.36	35
3	1326	0.37	71
3	1361	0.38	66
3	1394	0.39	48
3	1441	0.4	0
3	1478	0.41	165
3	1511	0.42	0
3	1544	0.43	68
3	1569	0.44	75
3	1610	0.45	1
3	1639	0.46	141
3	1670	0.47	25
3	1707	0.48	128
3	1748	0.49	0
3	1791	0.5	30
3	1832	0.51	188
3	1871	0.52	35
3	1908	0.53	0
3	1949	0.54	73
3	1986	0.55	54
3	2005	0.56	0
3	2038	0.57	126
3	2079	0.58	43
3	2108	0.59	72
3	2145	0.6	0
3	2186	0.61	0
3	2223	0.62	143
3	2264	0.63	32
3	2293	0.64	86
3	2344	0.65	25
3	2377	0.66	135
3	2420	0.67	47
3	2459	0.68	101
3	2490	0.69	0
3	2525	0.7	123
3	2560	0.71	0
3	2585	0.72	54
3	2622	0.73	0
3	2661	0.74	0
3	2700	0.75	0
3	2731	0.76	0
3	2766	0.77	0
3	2799	0.78	0
3	2826	0.79	38
3	2863	0.8	29
3	2888	0.81	0
3	2933	0.82	0
3	2968	0.83	0
3	3011	0.84	112
3	3048	0.85	0
3	3083	0.86	101
3	3122	0.87	0
3	3151	0.88	24
3	3192	0.89	66
3	3233	0.9	0
3	3268	0.91	287
3	3305	0.92	2
3	3346	0.93	0
3	3383	0.94	66
3	3412	0.95	30
3	3443	0.96	54
3	3468	0.97	14
3	3501	0.98	8
3	3536	0.99	2
3	3573	1	109
3	3614	1.01	0
3	3643	1.02	25
4	48	0.01	0
4	93	0.02	196
4	124	0.03	35
4	151	0.04	0
4	188	0.05	0
4	217	0.06	0
4	258	0.07	97
4	289	0.08	83
4	342	0.09	80
4	379	0.1	0
4	418	0.11	88
4	457	0.12	19
4	500	0.13	28
4	527	0.14	50
4	558	0.15	84
4	585	0.16	30
4	618	0.17	0
4	659	0.18	0
4	690	0.19	32
4	735	0.2	0
4	774	0.21	0
4	811	0.22	26
4	852	0.23	0
4	883	0.24	0
4	926	0.25	89
4	957	0.26	0
4	994	0.27	0
4	1029	0.28	191
4	1060	0.29	79
4	1095	0.3	0
4	1130	0.31	164
4	1163	0.32	0
4	1202	0.33	1
4	1223	0.34	145
4	1256	0.35	0
4	1285	0.36	88
4	1326	0.37	37
4	1361	0.38	0
4	1394	0.39	0
4	1441	0.4	60
4	1478	0.41	0
4	1511	0.42	0
4	1544	0.43	103
4	1569	0.44	5
4	1610	0.45	0
4	1639	0.46	91
4	1670	0.47	0
4	1707	0.48	20
4	1748	0.49	0
4	1791	0.5	19
4	1832	0.51	107
4	1871	0.52	59
4	1908	0.53	123
4	1949	0.54	0
4	1986	0.55	75
4	2005	0.56	0
4	2038	0.57	178
4	2079	0.58	52
4	2108	0.59	122
4	2145	0.6	162
4	2186	0.61	10
4	2223	0.62	57
4	2264	0.63	0
4	2293	0.64	102
4	2344	0.65	99
4	2377	0.66	0
4	2420	0.67	239
4	2459	0.68	0
4	2490	0.69	26
4	2525	0.7	0
4	2560	0.71	41
4	2585	0.72	0
4	2622	0.73	0
4	2661	0.74	70
4	2700	0.75	161
4	2731	0.76	0
4	2766	0.77	63
4	2799	0.78	81
4	2826	0.79	0
4	2863	0.8	50
4	2888	0.81	62
4	2933	0.82	205
4	2968	0.83	41
4	3011	0.84	0
4	3048	0.85	53
4	3083	0.86	0
4	3122	0.87	6
4	3151	0.88	5
4	3192	0.89	56
4	3233	0.9	72
4	3268	0.91	23
4	3305	0.92	50
4	3346	0.93	0
4	3383	0.94	46
4	3412	0.95	145
4	3443	0.96	65
4	3468	0.97	64
4	3501	0.98	72
4	3536	0.99	9
4	3573	1	156
4	3614	1.01	0
4	3643	1.02	65
5	48	0.01	0
5	93	0.02	0
5	124	0.03	102
5	151	0.04	32
5	188	0.05	0
5	217	0.06	38
5	258	0.07	18
5	289	0.08	31
5	342	0.09	0
5	379	0.1	0
5	418	0.11	147
5	457	0.12	47
5	500	0.13	56
5	527	0.14	0
5	558	0.15	61
5	585	0.16	0
5	618	0.17	0
5	659	0.18	108
5	690	0.19	14
5	735	0.2	31
5	774	0.21	72
5	811	0.22	123
5	852	0.23	0
5	883	0.24	39
5	926	0.25	16
5	957	0.26	0
5	994	0.27	0
5	1029	0.28	0
5	1060	0.29	361
5	1095	0.3	0
5	1130	0.31	29
5	1163	0.32	39
5	1202	0.33	30
5	1223	0.34	80
5	1256	0.35	0
5	1285	0.36	0
5	1326	0.37	0
5	1361	0.38	4
5	1394	0.39	39
5	1441	0.4	0
5	1478	0.41	1
5	1511	0.42	39
5	1544	0.43	80
5	1569	0.44	36
5	1610	0.45	0
5	1639	0.46	13
5	1670	0.47	34
5	1707	0.48	138
5	1748	0.49	0
5	1791	0.5	58
5	1832	0.51	67
5	1871	0.52	97
5	1908	0.53	0
5	1949	0.54	0
5	1986	0.55	0
5	2005	0.56	147
5	2038	0.57	87
5	2079	0.58	0
5	2108	0.59	0
5	2145	0.6	0
5	2186	0.61	108
5	2223	0.62	0
5	2264	0.63	25
5	2293	0.64	13
5	2344	0.65	36
5	2377	0.66	0
5	2420	0.67	14
5	2459	0.68	25
5	2490	0.69	67
5	2525	0.7	146
5	2560	0.71	99
5	2585	0.72	25
5	2622	0.73	0
5	2661	0.74	0
5	2700	0.75	58
5	2731	0.76	27
5	2766	0.77	0
5	2799	0.78	90
5	2826	0.79	20
5	2863	0.8	0
5	2888	0.81	85
5	2933	0.82	0
5	2968	0.83	77
5	3011	0.84	0
5	3048	0.85	144
5	3083	0.86	0
5	3122	0.87	153
5	3151	0.88	98
5	3192	0.89	60
5	3233	0.9	73
5	3268	0.91	0
5	3305	0.92	0
5	3346	0.93	0
5	3383	0.94	251
5	3412	0.95	1
5	3443	0.96	8
5	3468	0.97	67
5	3501	0.98	0
5	3536	0.99	0
5	3573	1	0
5	3614	1.01	0
5	3643	1.02	89
6	48	0.01	0
6	93	0.02	30
6	124	0.03	77
6	151	0.04	42
6	188	0.05	51
6	217	0.06	176
6	258	0.07	17
6	289	0.08	1
6	342	0.09	0
6	379	0.1	0
6	418	0.11	206
6	457	0.12	0
6	500	0.13	47
6	527	0.14	0
6	558	0.15	45
6	585	0.16	70
6	618	0.17	23
6	659	0.18	95
6	690	0.19	125
6	735	0.2	72
6	774	0.21	39
6	811	0.22	77
6	852	0.23	54
6	883	0.24	0
6	926	0.25	57
6	957	0.26	0
6	994	0.27	0
6	1029	0.28	0
6	1060	0.29	195
6	1095	0.3	0
6	1130	0.31	98
6	1163	0.32	0
6	1202	0.33	2
6	1223	0.34	0
6	1256	0.35	0
6	1285	0.36	0
6	1326	0.37	73
6	1361	0.38	0
6	1394	0.39	95
6	1441	0.4	0
6	1478	0.41	291
6	1511	0.42	90
6	1544	0.43	90
6	1569	0.44	117
6	1610	0.45	0
6	1639	0.46	167
6	1670	0.47	20
6	1707	0.48	114
6	1748	0.49	59
6	1791	0.5	0
6	1832	0.51	192
6	1871	0.52	110
6	1908	0.53	0
6	1949	0.54	0
6	1986	0.55	0
6	2005	0.56	111
6	2038	0.57	0
6	2079	0.58	84
6	2108	0.59	0
6	2145	0.6	60
6	2186	0.61	0
6	2223	0.62	0
6	2264	0.63	69
6	2293	0.64	156
6	2344	0.65	50
6	2377	0.66	14
6	2420	0.67	164
6	2459	0.68	61
6	2490	0.69	0
6	2525	0.7	67
6	2560	0.71	73
6	2585	0.72	16
6	2622	0.73	11
6	2661	0.74	0
6	2700	0.75	21
6	2731	0.76	116
6	2766	0.77	0
6	2799	0.78	176
6	2826	0.79	111
6	2863	0.8	44
6	2888	0.81	0
6	2933	0.82	41
6	2968	0.83	94
6	3011	0.84	0
6	3048	0.85	78
6	3083	0.86	0
6	3122	0.87	25
6	3151	0.88	43
6	3192	0.89	50
6	3233	0.9	106
6	3268	0.91	0
6	3305	0.92	52
6	3346	0.93	0
6	3383	0.94	78
6	3412	0.95	60
6	3443	0.96	71
6	3468	0.97	48
6	3501	0.98	139
6	3536	0.99	0
6	3573	1	50
6	3614	1.01	43
6	3643	1.02	128
7	48	0.01	0
7	93	0.02	40
7	124	0.03	0
7	151	0.04	87
7	188	0.05	0
7	217	0.06	41
7	258	0.07	4
7	289	0.08	175
7	342	0.09	34
7	379	0.1	31
7	418	0.11	0
7	457	0.12	102
7	500	0.13	52
7	527	0.14	0
7	558	0.15	0
7	585	0.16	53
7	618	0.17	0
7	659	0.18	0
7	690	0.19	104
7	735	0.2	21
7	774	0.21	101
7	811	0.22	0
7	852	0.23	20
7	883	0.24	0
7	926	0.25	42
7	957	0.26	67
7	994	0.27	0
7	1029	0.28	81
7	1060	0.29	0
7	1095	0.3	3
7	1130	0.31	0
7	1163	0.32	7
7	1202	0.33	0
7	1223	0.34	33
7	1256	0.35	49
7	1285	0.36	75
7	1326	0.37	0
7	1361	0.38	55
7	1394	0.39	0
7	1441	0.4	50
7	1478	0.41	72
7	1511	0.42	2
7	1544	0.43	0
7	1569	0.44	0
7	1610	0.45	0
7	1639	0.46	0
7	1670	0.47	75
7	1707	0.48	0
7	1748	0.49	67
7	1791	0.5	97
7	1832	0.51	66
7	1871	0.52	0
7	1908	0.53	63
7	1949	0.54	97
7	1986	0.55	0
7	2005	0.56	0
7	2038	0.57	0
7	2079	0.58	32
7	2108	0.59	3
7	2145	0.6	9
7	2186	0.61	74
7	2223	0.62	13
7	2264	0.63	37
7	2293	0.64	0
7	2344	0.65	0
7	2377	0.66	117
7	2420	0.67	0
7	2459	0.68	56
7	2490	0.69	0
7	2525	0.7	183
7	2560	0.71	0
7	2585	0.72	119
7	2622	0.73	0
7	2661	0.74	0
7	2700	0.75	40
7	2731	0.76	72
7	2766	0.77	0
7	2799	0.78	4
7	2826	0.79	0
7	2863	0.8	114
7	2888	0.81	0
7	2933	0.82	0
7	2968	0.83	111
7	3011	0.84	0
7	3048	0.85	206
7	3083	0.86	0
7	3122	0.87	97
7	3151	0.88	48
7	3192	0.89	0
7	3233	0.9	0
7	3268	0.91	0
7	3305	0.92	0
7	3346	0.93	227
7	3383	0.94	54
7	3412	0.95	0
7	3443	0.96	0
7	3468	0.97	135
7	3501	0.98	26
7	3536	0.99	103
7	3573	1	34
7	3614	1.01	0
7	3643	1.02	16
8	48	0.01	0
8	93	0.02	0
8	124	0.03	0
8	151	0.04	234
8	188	0.05	0
8	217	0.06	19
8	258	0.07	0
8	289	0.08	63
8	342	0.09	85
8	379	0.1	251
8	418	0.11	0
8	457	0.12	90
8	500	0.13	0
8	527	0.14	0
8	558	0.15	101
8	585	0.16	52
8	618	0.17	36
8	659	0.18	12
8	690	0.19	0
8	735	0.2	0
8	774	0.21	6
8	811	0.22	0
8	852	0.23	122
8	883	0.24	0
8	926	0.25	0
8	957	0.26	164
8	994	0.27	0
8	1029	0.28	84
8	1060	0.29	0
8	1095	0.3	137
8	1130	0.31	0
8	1163	0.32	57
8	1202	0.33	1
8	1223	0.34	8
8	1256	0.35	0
8	1285	0.36	67
8	1326	0.37	75
8	1361	0.38	25
8	1394	0.39	15
8	1441	0.4	32
8	1478	0.41	48
8	1511	0.42	111
8	1544	0.43	23
8	1569	0.44	5
8	1610	0.45	0
8	1639	0.46	0
8	1670	0.47	146
8	1707	0.48	0
8	1748	0.49	5
8	1791	0.5	115
8	1832	0.51	0
8	1871	0.52	29
8	1908	0.53	61
8	1949	0.54	0
8	1986	0.55	85
8	2005	0.56	20
8	2038	0.57	0
8	2079	0.58	0
8	2108	0.59	0
8	2145	0.6	95
8	2186	0.61	15
8	2223	0.62	2
8	2264	0.63	20
8	2293	0.64	0
8	2344	0.65	0
8	2377	0.66	0
8	2420	0.67	14
8	2459	0.68	0
8	2490	0.69	0
8	2525	0.7	0
8	2560	0.71	214
8	2585	0.72	64
8	2622	0.73	0
8	2661	0.74	53
8	2700	0.75	0
8	2731	0.76	0
8	2766	0.77	0
8	2799	0.78	97
8	2826	0.79	0
8	2863	0.8	104
8	2888	0.81	0
8	2933	0.82	114
8	2968	0.83	0
8	3011	0.84	0
8	3048	0.85	26
8	3083	0.86	0
8	3122	0.87	146
8	3151	0.88	47
8	3192	0.89	0
8	3233	0.9	40
8	3268	0.91	54
8	3305	0.92	0
8	3346	0.93	61
8	3383	0.94	194
8	3412	0.95	23
8	3443	0.96	53
8	3468	0.97	61
8	3501	0.98	0
8	3536	0.99	105
8	3573	1	0
8	3614	1.01	39
8	3643	1.02	0
9	48	0.01	0
9	93	0.02	1
9	124	0.03	0
9	151	0.04	104
9	188	0.05	7
9	217	0.06	1
9	258	0.07	54
9	289	0.08	17
9	342	0.09	28
9	379	0.1	44
9	418	0.11	0
9	457	0.12	0
9	500	0.13	181
9	527	0.14	113
9	558	0.15	0
9	585	0.16	0
9	618	0.17	107
9	659	0.18	37
9	690	0.19	125
9	735	0.2	0
9	774	0.21	144
9	811	0.22	0
9	852	0.23	108
9	883	0.24	240
9	926	0.25	0
9	957	0.26	0
9	994	0.27	125
9	1029	0.28	0
9	1060	0.29	0
9	1095	0.3	26
9	1130	0.31	41
9	1163	0.32	127
9	1202	0.33	40
9	1223	0.34	66
9	1256	0.35	117
9	1285	0.36	20
9	1326	0.37	72
9	1361	0.38	98
9	1394	0.39	0
9	1441	0.4	136
9	1478	0.41	82
9	1511	0.42	77
9	1544	0.43	0
9	1569	0.44	76
9	1610	0.45	0
9	1639	0.46	0
9	1670	0.47	40
9	1707	0.48	0
9	1748	0.49	186
9	1791	0.5	4
9	1832	0.51	65
9	1871	0.52	98
9	1908	0.53	60
9	1949	0.54	114
9	1986	0.55	15
9	2005	0.56	37
9	2038	0.57	0
9	2079	0.58	5
9	2108	0.59	0
9	2145	0.6	156
9	2186	0.61	0
9	2223	0.62	71
9	2264	0.63	59
9	2293	0.64	48
9	2344	0.65	59
9	2377	0.66	0
9	2420	0.67	0
9	2459	0.68	110
9	2490	0.69	0
9	2525	0.7	0
9	2560	0.71	327
9	2585	0.72	0
9	2622	0.73	94
9	2661	0.74	45
9	2700	0.75	150
9	2731	0.76	0
9	2766	0.77	0
9	2799	0.78	32
9	2826	0.79	0
9	2863	0.8	67
9	2888	0.81	17
9	2933	0.82	15
9	2968	0.83	13
9	3011	0.84	0
9	3048	0.85	0
9	3083	0.86	69
9	3122	0.87	69
9	3151	0.88	128
9	3192	0.89	0
9	3233	0.9	37
9	3268	0.91	0
9	3305	0.92	36
9	3346	0.93	44
9	3383	0.94	0
9	3412	0.95	115
9	3443	0.96	0
9	3468	0.97	15
9	3501	0.98	52
9	3536	0.99	15
9	3573	1	54
9	3614	1.01	0
9	3643	1.02	69
10	48	0.01	0
10	93	0.02	41
10	124	0.03	0
10	151	0.04	79
10	188	0.05	55
10	217	0.06	46
10	258	0.07	75
10	289	0.08	39
10	342	0.09	87
10	379	0.1	26
10	418	0.11	29
10	457	0.12	0
10	500	0.13	201
10	527	0.14	59
10	558	0.15	0
10	585	0.16	57
10	618	0.17	5
10	659	0.18	0
10	690	0.19	0
10	735	0.2	26
10	774	0.21	0
10	811	0.22	0
10	852	0.23	108
10	883	0.24	0
10	926	0.25	75
10	957	0.26	0
10	994	0.27	0
10	1029	0.28	0
10	1060	0.29	0
10	1095	0.3	0
10	1130	0.31	243
10	1163	0.32	0
10	1202	0.33	0
10	1223	0.34	72
10	1256	0.35	65
10	1285	0.36	0
10	1326	0.37	57
10	1361	0.38	0
10	1394	0.39	0
10	1441	0.4	197
10	1478	0.41	61
10	1511	0.42	32
10	1544	0.43	3
10	1569	0.44	67
10	1610	0.45	0
10	1639	0.46	0
10	1670	0.47	115
10	1707	0.48	0
10	1748	0.49	16
10	1791	0.5	90
10	1832	0.51	110
10	1871	0.52	34
10	1908	0.53	37
10	1949	0.54	0
10	1986	0.55	201
10	2005	0.56	0
10	2038	0.57	0
10	2079	0.58	2
10	2108	0.59	0
10	2145	0.6	195
10	2186	0.61	0
10	2223	0.62	86
10	2264	0.63	0
10	2293	0.64	73
10	2344	0.65	0
10	2377	0.66	14
10	2420	0.67	0
10	2459	0.68	26
10	2490	0.69	0
10	2525	0.7	0
10	2560	0.71	14
10	2585	0.72	124
10	2622	0.73	0
10	2661	0.74	90
10	2700	0.75	0
10	2731	0.76	90
10	2766	0.77	0
10	2799	0.78	242
10	2826	0.79	0
10	2863	0.8	0
10	2888	0.81	0
10	2933	0.82	0
10	2968	0.83	0
10	3011	0.84	196
10	3048	0.85	0
10	3083	0.86	143
10	3122	0.87	47
10	3151	0.88	65
10	3192	0.89	71
10	3233	0.9	29
10	3268	0.91	0
10	3305	0.92	25
10	3346	0.93	74
10	3383	0.94	333
10	3412	0.95	28
10	3443	0.96	7
10	3468	0.97	0
10	3501	0.98	0
10	3536	0.99	82
10	3573	1	0
10	3614	1.01	0
10	3643	1.02	0
11	48	0.01	0
11	93	0.02	0
11	124	0.03	183
11	151	0.04	5
11	188	0.05	107
11	217	0.06	183
11	258	0.07	0
11	289	0.08	23
11	342	0.09	0
11	379	0.1	31
11	418	0.11	69
11	457	0.12	0
11	500	0.13	102
11	527	0.14	48
11	558	0.15	85
11	585	0.16	0
11	618	0.17	17
11	659	0.18	42
11	690	0.19	0
11	735	0.2	101
11	774	0.21	66
11	811	0.22	0
11	852	0.23	95
11	883	0.24	6
11	926	0.25	46
11	957	0.26	0
11	994	0.27	113
11	1029	0.28	62
11	1060	0.29	0
11	1095	0.3	17
11	1130	0.31	129
11	1163	0.32	154
11	1202	0.33	59
11	1223	0.34	0
11	1256	0.35	0
11	1285	0.36	0
11	1326	0.37	0
11	1361	0.38	16
11	1394	0.39	0
11	1441	0.4	0
11	1478	0.41	129
11	1511	0.42	238
11	1544	0.43	41
11	1569	0.44	60
11	1610	0.45	0
11	1639	0.46	0
11	1670	0.47	103
11	1707	0.48	36
11	1748	0.49	0
11	1791	0.5	0
11	1832	0.51	249
11	1871	0.52	19
11	1908	0.53	123
11	1949	0.54	104
11	1986	0.55	63
11	2005	0.56	66
11	2038	0.57	0
11	2079	0.58	53
11	2108	0.59	86
11	2145	0.6	22
11	2186	0.61	51
11	2223	0.62	135
11	2264	0.63	148
11	2293	0.64	10
11	2344	0.65	112
11	2377	0.66	0
11	2420	0.67	42
11	2459	0.68	111
11	2490	0.69	0
11	2525	0.7	48
11	2560	0.71	0
11	2585	0.72	0
11	2622	0.73	43
11	2661	0.74	0
11	2700	0.75	0
11	2731	0.76	0
11	2766	0.77	136
11	2799	0.78	0
11	2826	0.79	30
11	2863	0.8	0
11	2888	0.81	0
11	2933	0.82	0
11	2968	0.83	0
11	3011	0.84	218
11	3048	0.85	0
11	3083	0.86	22
11	3122	0.87	0
11	3151	0.88	24
11	3192	0.89	51
11	3233	0.9	47
11	3268	0.91	0
11	3305	0.92	96
11	3346	0.93	0
11	3383	0.94	74
11	3412	0.95	44
11	3443	0.96	12
11	3468	0.97	31
11	3501	0.98	0
11	3536	0.99	19
11	3573	1	88
11	3614	1.01	92
11	3643	1.02	90
12	93	0.02	0.02
12	93	0.02	0.011257678208
12	93	0.02	0.02
12	93	0.02	0.018273480016
12	93	0.02	0.016898511007
12	93	0.02	0.013827330445
12	93	0.02	0.02
12	93	0.02	0.019110981738
12	93	0.02	0.018945411259
12	93	0.02	0.017952350689
12	93	0.02	0.013718909272
12	93	0.02	0.02
12	93	0.02	0.02
12	93	0.02	0.019220751099
12	93	0.02	0.011216107877
12	93	0.02	0.02
12	93	0.02	0.02
12	124	0.03	0.03
12	124	0.03	0.028556581663
12	124	0.03	0.025513905614
12	124	0.03	0.013586686989
12	124	0.03	0.017148688834
12	124	0.03	0.018547987117
12	124	0.03	0.011176273288
12	124	0.03	0.018490615645
12	124	0.03	0.012060062334
12	124	0.03	0.011758923142
12	124	0.03	0.03
12	124	0.03	0.027953501486
12	124	0.03	0.016002057816
12	124	0.03	0.012701486833
12	151	0.04	0.016146214921
12	151	0.04	0.015626598372
12	151	0.04	0.01369202732
12	151	0.04	0.04
12	151	0.04	0.029992548684
12	151	0.04	0.019870040527
12	151	0.04	0.019453962509
12	151	0.04	0.014868936137
12	151	0.04	0.022052699951
12	151	0.04	0.022004557919
12	151	0.04	0.024432080917
12	151	0.04	0.022237905224
12	151	0.04	0.017060874862
12	151	0.04	0.010852498156
12	151	0.04	0.01610266726
12	151	0.04	0.01593505983
12	151	0.04	0.026570512269
12	151	0.04	0.022349842181
12	151	0.04	0.02060272567
12	188	0.05	0.011404171742
12	188	0.05	0.016502053703
12	188	0.05	0.01676151292
12	188	0.05	0.015380295647
12	188	0.05	0.013325173085
12	188	0.05	0.010074956524
12	188	0.05	0.013487239194
12	188	0.05	0.016725612412
12	217	0.06	0.012078905579
12	217	0.06	0.010723812899
12	217	0.06	0.010965283289
12	217	0.06	0.01317540224
12	217	0.06	0.017157714512
12	217	0.06	0.016534004936
12	217	0.06	0.01206061343
12	217	0.06	0.0175047829
12	217	0.06	0.012026610065
12	217	0.06	0.018267045563
12	217	0.06	0.017458192233
12	217	0.06	0.016707356388
12	217	0.06	0.016551093236
12	258	0.07	0.017866844228
12	258	0.07	0.010364803151
12	258	0.07	0.01883599904
12	258	0.07	0.010481723318
12	258	0.07	0.016203080791
12	258	0.07	0.014487448644
12	258	0.07	0.014186464163
12	258	0.07	0.011237212456
12	258	0.07	0.015145838394
12	289	0.08	0.018339281906
12	289	0.08	0.016372043079
12	289	0.08	0.015605112031
12	289	0.08	0.012740514128
12	289	0.08	0.014069405576
12	289	0.08	0.013459800388
12	289	0.08	0.013508953632
12	289	0.08	0.011881955264
12	289	0.08	0.011440949516
12	289	0.08	0.018231753204
12	289	0.08	0.016966771225
12	289	0.08	0.012353601962
12	289	0.08	0.014517208838
12	289	0.08	0.013800482
12	289	0.08	0.013470366612
12	342	0.09	0.010586253561
12	342	0.09	0.01735649508
12	342	0.09	0.011851276018
12	342	0.09	0.015619585591
12	342	0.09	0.013570778487
12	342	0.09	0.012483778489
12	342	0.09	0.018353467038
12	342	0.09	0.017438594702
12	342	0.09	0.011990221171
12	379	0.1	0.016333844662
12	379	0.1	0.019544522983
12	379	0.1	0.017897309046
12	379	0.1	0.017895930907
12	379	0.1	0.015308406924
12	379	0.1	0.015013558122
12	379	0.1	0.019107221021
12	379	0.1	0.015978937999
12	379	0.1	0.010986265426
12	379	0.1	0.010729497248
12	379	0.1	0.018057203418
12	379	0.1	0.015181794602
12	418	0.11	0.028667377139
12	418	0.11	0.022475116817
12	418	0.11	0.014121067725
12	418	0.11	0.029134753124
12	418	0.11	0.023733792434
12	418	0.11	0.013069959622
12	418	0.11	0.01263471673
12	418	0.11	0.035247072149
12	418	0.11	0.013692270327
12	418	0.11	0.011422769576
12	418	0.11	0.029496740271
12	418	0.11	0.020580199265
12	418	0.11	0.018626370575
12	418	0.11	0.013782381452
12	418	0.11	0.011471676987
12	418	0.11	0.022086360586
12	418	0.11	0.018451476778
12	457	0.12	0.031639084597
12	457	0.12	0.021848829294
12	457	0.12	0.01405742842
12	457	0.12	0.01309708428
12	457	0.12	0.014966522047
12	457	0.12	0.012681904416
12	457	0.12	0.012657649225
12	457	0.12	0.014898262688
12	457	0.12	0.016147396846
12	457	0.12	0.01330438789
12	457	0.12	0.028555371928
12	457	0.12	0.026896257165
12	457	0.12	0.018548447018
12	500	0.13	0.027583736477
12	500	0.13	0.015075147836
12	500	0.13	0.013068181531
12	500	0.13	0.011742866784
12	500	0.13	0.04165127834
12	500	0.13	0.039530352496
12	500	0.13	0.027869188278
12	500	0.13	0.025117561792
12	500	0.13	0.016163200639
12	500	0.13	0.015249113548
12	500	0.13	0.014036706138
12	500	0.13	0.021929250421
12	500	0.13	0.012612868221
12	500	0.13	0.012959477731
12	500	0.13	0.016916592619
12	500	0.13	0.015818794042
12	500	0.13	0.013747934148
12	500	0.13	0.017996623337
12	500	0.13	0.010591417187
12	500	0.13	0.020323390183
12	500	0.13	0.013603087059
12	527	0.14	0.019717770903
12	527	0.14	0.018330099786
12	527	0.14	0.016814124285
12	527	0.14	0.013609893717
12	527	0.14	0.012190538175
12	527	0.14	0.018423894237
12	527	0.14	0.013337014459
12	527	0.14	0.016889390061
12	527	0.14	0.012589164147
12	527	0.14	0.019844339611
12	527	0.14	0.016704071889
12	527	0.14	0.013645528293
12	527	0.14	0.010009910703
12	558	0.15	0.015097025211
12	558	0.15	0.028455818575
12	558	0.15	0.02166372008
12	558	0.15	0.022514957404
12	558	0.15	0.019770779424
12	558	0.15	0.01656120033
12	558	0.15	0.017631384483
12	558	0.15	0.014958542355
12	558	0.15	0.010436142407
12	558	0.15	0.017293820156
12	558	0.15	0.013894242279
12	585	0.16	0.01549401512
12	585	0.16	0.016620290196
12	585	0.16	0.013182624962
12	585	0.16	0.013804231609
12	585	0.16	0.014703648987
12	585	0.16	0.012094742852
12	585	0.16	0.01040791934
12	585	0.16	0.016480414609
12	585	0.16	0.015533735389
12	618	0.17	0.018007864528
12	618	0.17	0.0103950381
12	618	0.17	0.021007512777
12	618	0.17	0.011933193463
12	618	0.17	0.01878650093
12	618	0.17	0.019610831978
12	659	0.18	0.018284719866
12	659	0.18	0.017668315189
12	659	0.18	0.01512978607
12	659	0.18	0.012208254346
12	659	0.18	0.011397610026
12	659	0.18	0.011170609164
12	659	0.18	0.019164147138
12	659	0.18	0.014230100339
12	659	0.18	0.018349588518
12	659	0.18	0.029518732034
12	659	0.18	0.023006672633
12	659	0.18	0.022518060381
12	690	0.19	0.028048523086
12	690	0.19	0.013369781845
12	690	0.19	0.01320443018
12	690	0.19	0.018199965246
12	690	0.19	0.012800915494
12	690	0.19	0.010517036854
12	690	0.19	0.010203815648
12	690	0.19	0.018686168988
12	690	0.19	0.016059727567
12	690	0.19	0.01529710754
12	690	0.19	0.015759309908
12	690	0.19	0.015215225277
12	690	0.19	0.011099954824
12	690	0.19	0.025212619518
12	690	0.19	0.017253264238
12	690	0.19	0.016221496962
12	735	0.2	0.019461730456
12	735	0.2	0.013576594978
12	735	0.2	0.012750184098
12	735	0.2	0.011571303558
12	735	0.2	0.019020026825
12	735	0.2	0.010780250366
12	735	0.2	0.014877311355
12	735	0.2	0.013881215026
12	735	0.2	0.020071402892
12	735	0.2	0.015261339803
12	735	0.2	0.014269320823
12	774	0.21	0.019666652017
12	774	0.21	0.016911588945
12	774	0.21	0.01641861436
12	774	0.21	0.017963371513
12	774	0.21	0.016767099585
12	774	0.21	0.014224648955
12	774	0.21	0.011503590454
12	774	0.21	0.01878865161
12	774	0.21	0.014780261167
12	774	0.21	0.015992696243
12	774	0.21	0.016767003075
12	774	0.21	0.015937769721
12	774	0.21	0.014693093489
12	774	0.21	0.013641466826
12	774	0.21	0.016392659853
12	774	0.21	0.011180979298
12	774	0.21	0.017526043319
12	811	0.22	0.019182979529
12	811	0.22	0.017171159144
12	811	0.22	0.016171391829
12	811	0.22	0.012178121675
12	811	0.22	0.018590833846
12	811	0.22	0.01265744301
12	811	0.22	0.016374485861
12	811	0.22	0.011768241649
12	852	0.23	0.021853498351
12	852	0.23	0.019063973049
12	852	0.23	0.018138068994
12	852	0.23	0.017147312503
12	852	0.23	0.022403909526
12	852	0.23	0.015927903022
12	852	0.23	0.010792597034
12	852	0.23	0.027211025493
12	852	0.23	0.022271364898
12	852	0.23	0.013271992058
12	852	0.23	0.020952156125
12	852	0.23	0.013692861844
12	852	0.23	0.011595435557
12	852	0.23	0.021535985317
12	852	0.23	0.017440229036
12	852	0.23	0.012629831159
12	852	0.23	0.01135800009
12	852	0.23	0.019059362814
12	852	0.23	0.010344438503
12	883	0.24	0.019419793265
12	883	0.24	0.019173019937
12	883	0.24	0.017973956608
12	883	0.24	0.016015262004
12	883	0.24	0.014241586618
12	883	0.24	0.017176142624
12	883	0.24	0.016875352921
12	883	0.24	0.018814064215
12	926	0.25	0.017002861884
12	926	0.25	0.029157710482
12	926	0.25	0.023086528211
12	926	0.25	0.022733323304
12	926	0.25	0.02348394358
12	926	0.25	0.014641910697
12	926	0.25	0.018767891424
12	926	0.25	0.029139577445
12	926	0.25	0.023775043531
12	926	0.25	0.021409439686
12	926	0.25	0.017240368125
12	957	0.26	0.01367861884
12	957	0.26	0.011537744066
12	957	0.26	0.024684398981
12	957	0.26	0.015467366014
12	957	0.26	0.01286414688
12	994	0.27	0.028073759824
12	994	0.27	0.020049190056
12	994	0.27	0.026139325792
12	994	0.27	0.023514720319
12	994	0.27	0.01372766166
12	994	0.27	0.011184908574
12	994	0.27	0.024275476571
12	1029	0.28	0.037985917778
12	1029	0.28	0.026894095996
12	1029	0.28	0.020975786185
12	1029	0.28	0.039790399539
12	1029	0.28	0.038097560273
12	1029	0.28	0.034662262448
12	1029	0.28	0.026588424414
12	1029	0.28	0.027283519089
12	1029	0.28	0.019077917915
12	1029	0.28	0.01645696089
12	1029	0.28	0.013853167613
12	1029	0.28	0.030647879267
12	1029	0.28	0.030609693619
12	1029	0.28	0.011497005548
12	1060	0.29	0.029515603066
12	1060	0.29	0.01190628947
12	1060	0.29	0.011190514421
12	1060	0.29	0.02482947647
12	1060	0.29	0.021840307085
12	1060	0.29	0.053759470092
12	1060	0.29	0.051793851402
12	1060	0.29	0.03859312218
12	1060	0.29	0.036415168891
12	1060	0.29	0.035976528489
12	1060	0.29	0.018594216935
12	1060	0.29	0.017471189604
12	1060	0.29	0.016086083332
12	1060	0.29	0.014123937878
12	1060	0.29	0.055859473746
12	1060	0.29	0.053977445929
12	1060	0.29	0.053706854586
12	1060	0.29	0.035526684321
12	1060	0.29	0.026432871731
12	1095	0.3	0.014575113097
12	1095	0.3	0.050555730078
12	1095	0.3	0.033647311335
12	1095	0.3	0.026118314922
12	1095	0.3	0.025068426668
12	1095	0.3	0.011768819357
12	1095	0.3	0.011060209389
12	1095	0.3	0.021954463864
12	1130	0.31	0.025007594928
12	1130	0.31	0.025815566506
12	1130	0.31	0.024978010676
12	1130	0.31	0.019396563369
12	1130	0.31	0.012242151117
12	1130	0.31	0.010614162088
12	1130	0.31	0.010423903243
12	1130	0.31	0.02911238565
12	1130	0.31	0.022890578685
12	1130	0.31	0.015933262552
12	1130	0.31	0.025632637256
12	1130	0.31	0.042812082344
12	1130	0.31	0.03596732248
12	1130	0.31	0.023021941174
12	1130	0.31	0.014403822785
12	1130	0.31	0.019472717497
12	1130	0.31	0.045322263483
12	1130	0.31	0.045304300584
12	1130	0.31	0.045053521628
12	1130	0.31	0.032448157958
12	1130	0.31	0.019811364305
12	1130	0.31	0.01419556115
12	1130	0.31	0.031546067566
12	1130	0.31	0.01940715909
12	1130	0.31	0.018236873142
12	1163	0.32	0.015517314655
12	1163	0.32	0.013514835129
12	1163	0.32	0.017592101152
12	1163	0.32	0.014063756143
12	1163	0.32	0.010010335698
12	1163	0.32	0.019831102644
12	1163	0.32	0.015007348992
12	1163	0.32	0.017608431878
12	1163	0.32	0.015227265357
12	1163	0.32	0.012582829955
12	1163	0.32	0.023545280259
12	1163	0.32	0.016934137317
12	1163	0.32	0.012892471039
12	1202	0.33	0.017037985062
12	1202	0.33	0.011151368463
12	1202	0.33	0.012021254358
12	1202	0.33	0.015227848838
12	1202	0.33	0.010244296892
12	1202	0.33	0.019613672675
12	1202	0.33	0.018290544835
12	1202	0.33	0.018384131854
12	1202	0.33	0.013153427294
12	1202	0.33	0.013643349513
12	1223	0.34	0.014039356219
12	1223	0.34	0.014095576484
12	1223	0.34	0.021296121522
12	1223	0.34	0.017739119836
12	1223	0.34	0.012341906197
12	1223	0.34	0.014535727818
12	1223	0.34	0.012881931635
12	1223	0.34	0.017162582124
12	1223	0.34	0.015425149181
12	1223	0.34	0.010990261916
12	1223	0.34	0.011326384093
12	1223	0.34	0.018038853938
12	1223	0.34	0.015712972002
12	1223	0.34	0.011883300535
12	1223	0.34	0.011528443828
12	1256	0.35	0.015380345824
12	1256	0.35	0.017576017982
12	1256	0.35	0.015705598501
12	1256	0.35	0.015294052852
12	1256	0.35	0.014301912497
12	1285	0.36	0.012870782655
12	1285	0.36	0.012055039012
12	1285	0.36	0.011350158639
12	1285	0.36	0.016707563194
12	1285	0.36	0.012381063354
12	1285	0.36	0.01907741639
12	1285	0.36	0.016311454032
12	1285	0.36	0.01853398899
12	1326	0.37	0.015039006978
12	1326	0.37	0.016113537459
12	1326	0.37	0.010855616493
12	1326	0.37	0.011496147207
12	1326	0.37	0.019621820217
12	1326	0.37	0.011762377232
12	1326	0.37	0.010936876547
12	1326	0.37	0.015108231737
12	1326	0.37	0.028418803099
12	1326	0.37	0.02704733351
12	1361	0.38	0.012485623546
12	1361	0.38	0.015518717186
12	1361	0.38	0.017796475858
12	1361	0.38	0.010091770679
12	1361	0.38	0.013417125857
12	1361	0.38	0.017861182607
12	1361	0.38	0.016010030059
12	1361	0.38	0.010771318289
12	1361	0.38	0.02717262917
12	1394	0.39	0.019387401189
12	1394	0.39	0.018733055391
12	1394	0.39	0.01843273335
12	1394	0.39	0.010657421334
12	1394	0.39	0.014282925353
12	1394	0.39	0.015180442528
12	1394	0.39	0.01198855824
12	1394	0.39	0.017833484624
12	1441	0.4	0.012238196334
12	1441	0.4	0.018881671315
12	1441	0.4	0.012212408508
12	1441	0.4	0.010036038169
12	1441	0.4	0.023312784013
12	1441	0.4	0.019206629168
12	1441	0.4	0.026230604822
12	1441	0.4	0.014976597859
12	1441	0.4	0.012274684053
12	1441	0.4	0.010030598316
12	1441	0.4	0.056915130537
12	1441	0.4	0.037855748294
12	1441	0.4	0.037421816701
12	1441	0.4	0.028731119472
12	1441	0.4	0.019185347545
12	1441	0.4	0.01915208008
12	1478	0.41	0.016392442869
12	1478	0.41	0.016173480496
12	1478	0.41	0.011947916809
12	1478	0.41	0.016178968672
12	1478	0.41	0.019363733993
12	1478	0.41	0.018906615388
12	1478	0.41	0.018467330234
12	1478	0.41	0.016581831147
12	1478	0.41	0.014298236044
12	1478	0.41	0.018500113763
12	1478	0.41	0.010864592499
12	1478	0.41	0.016977483298
12	1478	0.41	0.012544708218
12	1478	0.41	0.019623676301
12	1478	0.41	0.018204643909
12	1478	0.41	0.016592962802
12	1478	0.41	0.04954494346
12	1478	0.41	0.048952891069
12	1511	0.42	0.012273208371
12	1511	0.42	0.012523575925
12	1511	0.42	0.021593528276
12	1511	0.42	0.011384943855
12	1511	0.42	0.019877498193
12	1511	0.42	0.018339557687
12	1511	0.42	0.012171722329
12	1511	0.42	0.016122922135
12	1511	0.42	0.014947849868
12	1511	0.42	0.014881326837
12	1511	0.42	0.018312221001
12	1511	0.42	0.017564224995
12	1511	0.42	0.012800946507
12	1511	0.42	0.058005624093
12	1511	0.42	0.055440604178
12	1511	0.42	0.051052889036
12	1511	0.42	0.049306403519
12	1511	0.42	0.037957556903
12	1511	0.42	0.021710407651
12	1511	0.42	0.019760068019
12	1544	0.43	0.018262215599
12	1544	0.43	0.016454892582
12	1544	0.43	0.016526160691
12	1544	0.43	0.014736360095
12	1544	0.43	0.01383104079
12	1544	0.43	0.010406450077
12	1544	0.43	0.012320923375
12	1544	0.43	0.010167836716
12	1544	0.43	0.018772927642
12	1544	0.43	0.013575487721
12	1544	0.43	0.015574089562
12	1569	0.44	0.018189502142
12	1569	0.44	0.011958812224
12	1569	0.44	0.017749914605
12	1569	0.44	0.010691786037
12	1569	0.44	0.018562226711
12	1569	0.44	0.016482078359
12	1569	0.44	0.014200113708
12	1569	0.44	0.01563403214
12	1569	0.44	0.014433379436
12	1569	0.44	0.011439951828
12	1569	0.44	0.011080818747
12	1610	0.45	0.018686534271
12	1610	0.45	0.011772967704
12	1610	0.45	0.010758465765
12	1610	0.45	0.012631240156
12	1639	0.46	0.017386436521
12	1639	0.46	0.014500061838
12	1639	0.46	0.019881147205
12	1639	0.46	0.011106961885
12	1639	0.46	0.010819704931
12	1639	0.46	0.028574222042
12	1639	0.46	0.018287724707
12	1639	0.46	0.017807615895
12	1639	0.46	0.025313074241
12	1639	0.46	0.015467288945
12	1639	0.46	0.01123797031
12	1670	0.47	0.029216124156
12	1670	0.47	0.010232164864
12	1670	0.47	0.026269049767
12	1670	0.47	0.022721998685
12	1670	0.47	0.012975505168
12	1670	0.47	0.012395074996
12	1670	0.47	0.023641412242
12	1670	0.47	0.021911258911
12	1670	0.47	0.019650391642
12	1670	0.47	0.017001183411
12	1670	0.47	0.016969828368
12	1670	0.47	0.030439514685
12	1670	0.47	0.029838784715
12	1670	0.47	0.013604964809
12	1670	0.47	0.010817355245
12	1670	0.47	0.01566824158
12	1707	0.48	0.012551794119
12	1707	0.48	0.013704773227
12	1707	0.48	0.01318689978
12	1707	0.48	0.016671177756
12	1707	0.48	0.019316277159
12	1707	0.48	0.01456220484
12	1707	0.48	0.019171632997
12	1707	0.48	0.018873616519
12	1707	0.48	0.01882491025
12	1707	0.48	0.013956474068
12	1748	0.49	0.0188144594
12	1748	0.49	0.017509232781
12	1748	0.49	0.016027742892
12	1748	0.49	0.01265271083
12	1748	0.49	0.010872099203
12	1748	0.49	0.010620542562
12	1748	0.49	0.013273895638
12	1748	0.49	0.015131260246
12	1748	0.49	0.013707327519
12	1791	0.5	0.0159110945
12	1791	0.5	0.010322776809
12	1791	0.5	0.014548334867
12	1791	0.5	0.014351851452
12	1791	0.5	0.012824528401
12	1791	0.5	0.018731883314
12	1791	0.5	0.018283596469
12	1791	0.5	0.014725264982
12	1791	0.5	0.017229327934
12	1791	0.5	0.01536755921
12	1791	0.5	0.011011575721
12	1791	0.5	0.027835923028
12	1791	0.5	0.020701830583
12	1791	0.5	0.01908507712
12	1832	0.51	0.016677754738
12	1832	0.51	0.014177532122
12	1832	0.51	0.01766706811
12	1832	0.51	0.018074986033
12	1832	0.51	0.010481781707
12	1832	0.51	0.031101113245
12	1832	0.51	0.028813169236
12	1832	0.51	0.024109532804
12	1832	0.51	0.02363313373
12	1832	0.51	0.019197692753
12	1832	0.51	0.015621685066
12	1832	0.51	0.017770863995
12	1832	0.51	0.017738532816
12	1832	0.51	0.015145516841
12	1832	0.51	0.03353592699
12	1832	0.51	0.012189467832
12	1832	0.51	0.017300799628
12	1832	0.51	0.019958163777
12	1832	0.51	0.019066464191
12	1832	0.51	0.015810538224
12	1832	0.51	0.010720400366
12	1871	0.52	0.014289187554
12	1871	0.52	0.016203521593
12	1871	0.52	0.01433035069
12	1871	0.52	0.010125372636
12	1871	0.52	0.019403229623
12	1871	0.52	0.010236196903
12	1871	0.52	0.010155812178
12	1871	0.52	0.01042078332
12	1871	0.52	0.014169618602
12	1871	0.52	0.014836449687
12	1871	0.52	0.011278861538
12	1871	0.52	0.015922272096
12	1871	0.52	0.012138675431
12	1871	0.52	0.013554245768
12	1871	0.52	0.013203571337
12	1908	0.53	0.01933773957
12	1908	0.53	0.016166963337
12	1908	0.53	0.010037047174
12	1908	0.53	0.015973808281
12	1908	0.53	0.015512204958
12	1908	0.53	0.014734644108
12	1908	0.53	0.017754403039
12	1908	0.53	0.019818211173
12	1908	0.53	0.016015342277
12	1908	0.53	0.016069770538
12	1908	0.53	0.018784986412
12	1908	0.53	0.018632380902
12	1908	0.53	0.017684174219
12	1949	0.54	0.016742145653
12	1949	0.54	0.011135051613
12	1949	0.54	0.019701703672
12	1949	0.54	0.013653992335
12	1949	0.54	0.010334544571
12	1949	0.54	0.01514160416
12	1949	0.54	0.012084365662
12	1949	0.54	0.010420569807
12	1949	0.54	0.013920361195
12	1949	0.54	0.012286111647
12	1986	0.55	0.018871632045
12	1986	0.55	0.016316767571
12	1986	0.55	0.010867120418
12	1986	0.55	0.017287346325
12	1986	0.55	0.011170073196
12	1986	0.55	0.019488983549
12	1986	0.55	0.016864358832
12	1986	0.55	0.015910962539
12	1986	0.55	0.016632802485
12	1986	0.55	0.016694858757
12	1986	0.55	0.017693703519
12	1986	0.55	0.019464404184
12	2005	0.56	0.03358130925
12	2005	0.56	0.030370300804
12	2005	0.56	0.01995323648
12	2005	0.56	0.049571274434
12	2005	0.56	0.032079500492
12	2005	0.56	0.021423392587
12	2005	0.56	0.013682959035
12	2005	0.56	0.01555565908
12	2005	0.56	0.015943882202
12	2005	0.56	0.011615710313
12	2005	0.56	0.010389268293
12	2005	0.56	0.015988461458
12	2005	0.56	0.013862930229
12	2038	0.57	0.029844704241
12	2038	0.57	0.023373280974
12	2038	0.57	0.019629696566
12	2038	0.57	0.026242376658
12	2038	0.57	0.010725283803
12	2038	0.57	0.035263499829
12	2038	0.57	0.034282901829
12	2038	0.57	0.026353203074
12	2038	0.57	0.020873055672
12	2038	0.57	0.014267175982
12	2038	0.57	0.010701455886
12	2079	0.58	0.017184263415
12	2079	0.58	0.014829771293
12	2079	0.58	0.016490932996
12	2079	0.58	0.010508060967
12	2079	0.58	0.01305750518
12	2079	0.58	0.016461200362
12	2079	0.58	0.010819790884
12	2079	0.58	0.019824372507
12	2108	0.59	0.018444920369
12	2108	0.59	0.011651456481
12	2108	0.59	0.021445994238
12	2108	0.59	0.023634022131
12	2108	0.59	0.019126992446
12	2108	0.59	0.010548727432
12	2108	0.59	0.02470974313
12	2108	0.59	0.011763995855
12	2145	0.6	0.013772547672
12	2145	0.6	0.025925503085
12	2145	0.6	0.025229251172
12	2145	0.6	0.019067724843
12	2145	0.6	0.013290730533
12	2145	0.6	0.028356910735
12	2145	0.6	0.011617297029
12	2145	0.6	0.025393524021
12	2145	0.6	0.015685755712
12	2145	0.6	0.027483121956
12	2145	0.6	0.027419585843
12	2145	0.6	0.022805800727
12	2145	0.6	0.028539910909
12	2145	0.6	0.027791706494
12	2145	0.6	0.026730121
12	2145	0.6	0.010820087254
12	2145	0.6	0.010419464281
12	2145	0.6	0.019944568019
12	2145	0.6	0.014331444934
12	2186	0.61	0.018991450696
12	2186	0.61	0.019181059618
12	2186	0.61	0.013172247627
12	2186	0.61	0.012950998647
12	2186	0.61	0.011310113855
12	2186	0.61	0.010530209374
12	2186	0.61	0.017513068672
12	2186	0.61	0.015420363127
12	2186	0.61	0.013877628601
12	2186	0.61	0.018871540278
12	2223	0.62	0.019305333061
12	2223	0.62	0.015458027064
12	2223	0.62	0.012341864541
12	2223	0.62	0.011308650299
12	2223	0.62	0.014722744742
12	2223	0.62	0.013749074514
12	2223	0.62	0.013588827548
12	2223	0.62	0.017117634106
12	2223	0.62	0.012122380334
12	2223	0.62	0.015277610173
12	2223	0.62	0.011060319613
12	2223	0.62	0.01979390993
12	2223	0.62	0.017696424162
12	2223	0.62	0.010480004004
12	2223	0.62	0.024833774563
12	2223	0.62	0.023572839201
12	2223	0.62	0.023211831055
12	2264	0.63	0.01061255764
12	2264	0.63	0.019857465164
12	2264	0.63	0.01855076265
12	2264	0.63	0.012657821715
12	2264	0.63	0.013161070462
12	2264	0.63	0.010795092554
12	2264	0.63	0.017052445408
12	2264	0.63	0.016363721153
12	2264	0.63	0.014351707629
12	2264	0.63	0.010761842292
12	2264	0.63	0.02483845345
12	2264	0.63	0.017802522204
12	2264	0.63	0.016198469988
12	2264	0.63	0.010508767427
12	2293	0.64	0.019815853125
12	2293	0.64	0.012197700669
12	2293	0.64	0.01662706745
12	2293	0.64	0.012656326967
12	2293	0.64	0.010557232307
12	2293	0.64	0.012445898966
12	2293	0.64	0.018624208916
12	2293	0.64	0.01319349272
12	2293	0.64	0.012320134722
12	2293	0.64	0.012281158849
12	2293	0.64	0.014118243925
12	2293	0.64	0.010270691382
12	2293	0.64	0.015983710211
12	2293	0.64	0.015756288413
12	2293	0.64	0.010094236239
12	2344	0.65	0.019270973847
12	2344	0.65	0.017808469172
12	2344	0.65	0.010328367992
12	2344	0.65	0.010892928607
12	2344	0.65	0.014012133948
12	2344	0.65	0.016242128493
12	2344	0.65	0.015777512623
12	2344	0.65	0.01563011121
12	2344	0.65	0.011289093984
12	2377	0.66	0.017299579074
12	2377	0.66	0.014885008077
12	2377	0.66	0.011985473409
12	2377	0.66	0.018255223041
12	2377	0.66	0.017489249698
12	2377	0.66	0.011461477781
12	2377	0.66	0.011386917164
12	2377	0.66	0.013975423905
12	2377	0.66	0.019124200842
12	2377	0.66	0.01623654244
12	2377	0.66	0.011552820071
12	2377	0.66	0.015503821417
12	2420	0.67	0.01116647488
12	2420	0.67	0.019175898541
12	2420	0.67	0.011259247238
12	2420	0.67	0.029552830008
12	2420	0.67	0.026200748311
12	2420	0.67	0.023462323344
12	2420	0.67	0.013305452272
12	2420	0.67	0.011087413005
12	2420	0.67	0.014278507375
12	2420	0.67	0.012480107306
12	2420	0.67	0.018628089325
12	2420	0.67	0.016858953518
12	2420	0.67	0.015773757272
12	2420	0.67	0.029117177883
12	2459	0.68	0.019965326724
12	2459	0.68	0.018853559515
12	2459	0.68	0.018727218358
12	2459	0.68	0.013390154176
12	2459	0.68	0.019528101352
12	2459	0.68	0.01825618572
12	2459	0.68	0.015858078352
12	2459	0.68	0.017587518976
12	2459	0.68	0.016337994188
12	2459	0.68	0.014716157838
12	2459	0.68	0.010378131214
12	2459	0.68	0.01995445619
12	2459	0.68	0.037406544178
12	2459	0.68	0.031355261755
12	2459	0.68	0.030209227384
12	2459	0.68	0.033729913276
12	2490	0.69	0.018530244512
12	2490	0.69	0.012703854173
12	2490	0.69	0.021368374145
12	2525	0.7	0.01443706614
12	2525	0.7	0.014935780296
12	2525	0.7	0.014611849093
12	2525	0.7	0.019385786896
12	2525	0.7	0.01862772175
12	2525	0.7	0.01212159926
12	2525	0.7	0.024637105792
12	2525	0.7	0.024587850623
12	2525	0.7	0.022450178496
12	2525	0.7	0.019064591386
12	2525	0.7	0.021003468432
12	2525	0.7	0.036171166163
12	2525	0.7	0.028119743912
12	2525	0.7	0.023126228661
12	2525	0.7	0.021786208006
12	2560	0.71	0.044617211155
12	2560	0.71	0.035906506351
12	2560	0.71	0.03285254235
12	2560	0.71	0.029595663656
12	2560	0.71	0.024582396094
12	2560	0.71	0.056515365325
12	2560	0.71	0.042253463361
12	2560	0.71	0.038319511279
12	2560	0.71	0.036011112244
12	2560	0.71	0.03456372969
12	2560	0.71	0.026379775795
12	2560	0.71	0.016654425936
12	2560	0.71	0.0102171109
12	2560	0.71	0.010091756922
12	2560	0.71	0.010004262884
12	2560	0.71	0.01643371388
12	2560	0.71	0.015068858401
12	2560	0.71	0.01224780705
12	2560	0.71	0.011115228787
12	2560	0.71	0.017868212327
12	2560	0.71	0.013683497921
12	2560	0.71	0.014812768136
12	2585	0.72	0.016915533448
12	2585	0.72	0.015817542989
12	2585	0.72	0.013623769983
12	2585	0.72	0.012811694323
12	2585	0.72	0.013447180306
12	2585	0.72	0.016592929619
12	2585	0.72	0.012302489547
12	2585	0.72	0.017727645016
12	2585	0.72	0.012882103747
12	2585	0.72	0.022362213535
12	2585	0.72	0.013738479712
12	2622	0.73	0.012929135474
12	2622	0.73	0.011449393949
12	2622	0.73	0.014318606199
12	2622	0.73	0.013072882969
12	2661	0.74	0.017582857779
12	2661	0.74	0.011492372018
12	2661	0.74	0.013366296417
12	2661	0.74	0.019459262347
12	2661	0.74	0.019262429818
12	2661	0.74	0.011923189266
12	2661	0.74	0.02755090343
12	2661	0.74	0.026123120101
12	2661	0.74	0.013675558919
12	2661	0.74	0.013502311631
12	2661	0.74	0.035159236702
12	2700	0.75	0.010033098003
12	2700	0.75	0.012589007098
12	2700	0.75	0.021685817212
12	2700	0.75	0.019569626254
12	2700	0.75	0.016377434787
12	2700	0.75	0.013734770858
12	2700	0.75	0.013037881417
12	2700	0.75	0.018935672806
12	2700	0.75	0.042946921471
12	2700	0.75	0.039423214184
12	2700	0.75	0.029215733696
12	2731	0.76	0.016622789531
12	2731	0.76	0.01121326276
12	2731	0.76	0.019036450956
12	2731	0.76	0.012671150784
12	2731	0.76	0.023864980926
12	2731	0.76	0.011738931833
12	2731	0.76	0.025658078377
12	2731	0.76	0.01511188129
12	2766	0.77	0.026869710357
12	2766	0.77	0.021690107123
12	2766	0.77	0.014237162899
12	2766	0.77	0.034440758916
12	2766	0.77	0.033862387426
12	2766	0.77	0.03124387401
12	2766	0.77	0.022503328374
12	2766	0.77	0.042370449493
12	2799	0.78	0.024886349722
12	2799	0.78	0.014536097163
12	2799	0.78	0.029450419845
12	2799	0.78	0.01750498961
12	2799	0.78	0.016627807174
12	2799	0.78	0.016338324896
12	2799	0.78	0.024343202869
12	2799	0.78	0.045328330443
12	2799	0.78	0.0392400399
12	2799	0.78	0.031468489528
12	2799	0.78	0.011834492133
12	2799	0.78	0.02483503774
12	2799	0.78	0.015214828046
12	2799	0.78	0.033071855376
12	2799	0.78	0.029053581021
12	2799	0.78	0.027148394568
12	2799	0.78	0.025913570696
12	2799	0.78	0.01726928467
12	2799	0.78	0.029947373306
12	2799	0.78	0.025356910642
12	2799	0.78	0.015838107602
12	2799	0.78	0.051035723612
12	2799	0.78	0.05030055611
12	2826	0.79	0.015820027765
12	2826	0.79	0.022667944167
12	2826	0.79	0.017368704774
12	2826	0.79	0.018434793792
12	2826	0.79	0.024307810029
12	2863	0.8	0.060229580525
12	2863	0.8	0.058658323268
12	2863	0.8	0.054236854668
12	2863	0.8	0.023658676625
12	2863	0.8	0.01613936479
12	2863	0.8	0.014945851261
12	2863	0.8	0.024868576063
12	2863	0.8	0.017176112518
12	2863	0.8	0.021458235616
12	2863	0.8	0.0174891251
12	2863	0.8	0.027156611783
12	2863	0.8	0.023880912451
12	2888	0.81	0.048986440006
12	2888	0.81	0.019019750477
12	2888	0.81	0.017286466873
12	2888	0.81	0.015874134103
12	2888	0.81	0.01326290426
12	2888	0.81	0.01052139466
12	2933	0.82	0.053060836117
12	2933	0.82	0.043677666606
12	2933	0.82	0.040722081033
12	2933	0.82	0.034648396855
12	2933	0.82	0.026499324203
12	2933	0.82	0.015561891832
12	2933	0.82	0.027512993758
12	2933	0.82	0.030039339122
12	2933	0.82	0.013160790602
12	2933	0.82	0.012430147134
12	2968	0.83	0.018405699166
12	2968	0.83	0.014510081767
12	2968	0.83	0.01317086734
12	2968	0.83	0.01151832622
12	2968	0.83	0.010817030884
12	2968	0.83	0.027766566973
12	2968	0.83	0.023823416184
12	2968	0.83	0.031417224547
12	2968	0.83	0.031093704062
12	2968	0.83	0.019589630149
12	3011	0.84	0.026194762468
12	3011	0.84	0.023998345968
12	3011	0.84	0.017961914989
12	3011	0.84	0.011127532855
12	3011	0.84	0.047349432162
12	3011	0.84	0.045667142501
12	3011	0.84	0.042487496201
12	3011	0.84	0.031136978795
12	3011	0.84	0.022071812884
12	3011	0.84	0.020404008803
12	3011	0.84	0.051238818701
12	3011	0.84	0.046280965342
12	3011	0.84	0.035042949611
12	3011	0.84	0.026996308137
12	3011	0.84	0.024969195862
12	3011	0.84	0.019743455991
12	3011	0.84	0.014415176021
12	3011	0.84	0.060380159184
12	3011	0.84	0.053087063114
12	3048	0.85	0.020266561098
12	3048	0.85	0.01558370677
12	3048	0.85	0.012758948326
12	3048	0.85	0.027019935996
12	3048	0.85	0.015055307856
12	3048	0.85	0.028583623019
12	3048	0.85	0.012980558503
12	3048	0.85	0.033756242871
12	3048	0.85	0.023898363567
12	3048	0.85	0.012710470525
12	3048	0.85	0.012549539817
12	3048	0.85	0.011108478112
12	3048	0.85	0.021249211868
12	3083	0.86	0.04823469488
12	3083	0.86	0.044843708775
12	3083	0.86	0.038057499756
12	3083	0.86	0.020078001263
12	3083	0.86	0.028175052955
12	3083	0.86	0.025602288166
12	3083	0.86	0.023693063188
12	3083	0.86	0.019504091572
12	3083	0.86	0.010840818373
12	3083	0.86	0.023754492001
12	3083	0.86	0.027948039708
12	3083	0.86	0.026864889736
12	3083	0.86	0.020906401556
12	3083	0.86	0.019291087046
12	3083	0.86	0.046807880279
12	3083	0.86	0.046140814953
12	3122	0.87	0.029067758685
12	3122	0.87	0.029026099554
12	3122	0.87	0.028853748446
12	3122	0.87	0.02847064809
12	3122	0.87	0.012057889282
12	3122	0.87	0.026235724751
12	3122	0.87	0.027828755394
12	3122	0.87	0.01699121951
12	3122	0.87	0.027871185471
12	3122	0.87	0.027427332348
12	3122	0.87	0.024960499298
12	3122	0.87	0.019568837557
12	3122	0.87	0.011218963501
12	3122	0.87	0.01079513516
12	3122	0.87	0.017946461038
12	3122	0.87	0.019225512579
12	3122	0.87	0.015130386013
12	3122	0.87	0.014939970778
12	3151	0.88	0.018884955288
12	3151	0.88	0.019238752176
12	3151	0.88	0.013311801086
12	3151	0.88	0.016639075444
12	3151	0.88	0.012763855545
12	3151	0.88	0.01630269132
12	3151	0.88	0.011496154608
12	3151	0.88	0.014666683975
12	3151	0.88	0.013570801155
12	3151	0.88	0.015034030693
12	3151	0.88	0.014203797686
12	3151	0.88	0.011018591478
12	3151	0.88	0.017400568547
12	3151	0.88	0.014785641567
12	3151	0.88	0.059465502109
12	3192	0.89	0.019479286427
12	3192	0.89	0.017956182108
12	3192	0.89	0.011525101943
12	3192	0.89	0.019780235606
12	3192	0.89	0.01325243997
12	3192	0.89	0.01751562824
12	3192	0.89	0.018002426891
12	3192	0.89	0.015636126796
12	3192	0.89	0.014906830584
12	3192	0.89	0.061222771903
12	3192	0.89	0.056016920714
12	3233	0.9	0.014821050071
12	3233	0.9	0.018917995835
12	3233	0.9	0.010501555325
12	3233	0.9	0.01720308115
12	3233	0.9	0.014993525698
12	3233	0.9	0.010398360605
12	3233	0.9	0.010170721999
12	3233	0.9	0.019472560232
12	3233	0.9	0.018573019944
12	3233	0.9	0.016911420845
12	3233	0.9	0.016116380014
12	3233	0.9	0.013760326945
12	3268	0.91	0.023653227634
12	3268	0.91	0.017227611768
12	3268	0.91	0.067959846684
12	3268	0.91	0.052410937013
12	3268	0.91	0.05147518889
12	3268	0.91	0.050865532793
12	3268	0.91	0.02392409182
12	3268	0.91	0.020049837713
12	3268	0.91	0.014570742186
12	3268	0.91	0.011238085192
12	3268	0.91	0.015501575042
12	3305	0.92	0.021795850693
12	3305	0.92	0.018685379628
12	3305	0.92	0.029971796969
12	3305	0.92	0.02695118691
12	3305	0.92	0.023104779795
12	3305	0.92	0.021826897918
12	3305	0.92	0.01855618872
12	3305	0.92	0.015949708084
12	3305	0.92	0.019365829073
12	3305	0.92	0.01400483045
12	3305	0.92	0.019041640005
12	3305	0.92	0.012150058772
12	3346	0.93	0.031325775056
12	3346	0.93	0.018701076999
12	3346	0.93	0.016229457897
12	3346	0.93	0.011611946913
12	3346	0.93	0.034426740225
12	3346	0.93	0.014494441639
12	3346	0.93	0.039943218493
12	3383	0.94	0.018787943784
12	3383	0.94	0.018084987217
12	3383	0.94	0.010682845712
12	3383	0.94	0.028660230638
12	3383	0.94	0.027199261675
12	3383	0.94	0.023775281511
12	3383	0.94	0.012506584376
12	3383	0.94	0.020335050465
12	3383	0.94	0.019757635052
12	3383	0.94	0.043528816174
12	3383	0.94	0.035656048078
12	3383	0.94	0.030414781105
12	3383	0.94	0.016120223547
12	3383	0.94	0.012134117132
12	3383	0.94	0.010925527511
12	3383	0.94	0.029165395894
12	3383	0.94	0.01955017618
12	3383	0.94	0.019995062098
12	3383	0.94	0.03926216354
12	3383	0.94	0.03021460791
12	3383	0.94	0.025218232443
12	3383	0.94	0.019027778658
12	3383	0.94	0.013091532332
12	3383	0.94	0.048478119321
12	3383	0.94	0.040431461051
12	3383	0.94	0.037458199371
12	3383	0.94	0.027900616982
12	3383	0.94	0.026136435191
12	3383	0.94	0.024291299395
12	3412	0.95	0.015409019502
12	3412	0.95	0.015572532953
12	3412	0.95	0.010403012539
12	3412	0.95	0.012604637841
12	3412	0.95	0.019479403392
12	3412	0.95	0.014549191645
12	3412	0.95	0.010633328836
12	3412	0.95	0.018820466692
12	3412	0.95	0.022147587478
12	3412	0.95	0.015316971026
12	3412	0.95	0.025444826579
12	3412	0.95	0.018685823321
12	3412	0.95	0.01827690066
12	3412	0.95	0.015912607668
12	3412	0.95	0.029926323195
12	3412	0.95	0.013331647353
12	3443	0.96	0.010915798017
12	3443	0.96	0.011889743407
12	3443	0.96	0.019015256258
12	3443	0.96	0.014725862529
12	3443	0.96	0.014436464438
12	3443	0.96	0.018430737382
12	3443	0.96	0.019026764584
12	3443	0.96	0.015863593202
12	3443	0.96	0.014738612382
12	3468	0.97	0.017539932465
12	3468	0.97	0.018317309412
12	3468	0.97	0.01625664927
12	3468	0.97	0.013016417207
12	3468	0.97	0.016514165719
12	3468	0.97	0.015668355095
12	3468	0.97	0.014207649204
12	3468	0.97	0.014894491354
12	3468	0.97	0.013746799556
12	3468	0.97	0.014629618099
12	3501	0.98	0.015594229372
12	3501	0.98	0.013220586177
12	3501	0.98	0.018907432733
12	3501	0.98	0.018888539499
12	3501	0.98	0.019199760002
12	3501	0.98	0.019505564354
12	3536	0.99	0.018555957125
12	3536	0.99	0.012015889405
12	3536	0.99	0.019108764887
12	3536	0.99	0.018444088441
12	3536	0.99	0.017288295318
12	3536	0.99	0.014668646807
12	3536	0.99	0.012093051843
12	3536	0.99	0.01564651034
12	3536	0.99	0.011417386708
12	3536	0.99	0.014481316942
12	3536	0.99	0.021850978579
12	3536	0.99	0.018992190238
12	3573	1	0.018195556934
12	3573	1	0.01349026236
12	3573	1	0.019139382459
12	3573	1	0.011895065703
12	3573	1	0.011751552769
12	3573	1	0.017723738784
12	3573	1	0.0129662473
12	3573	1	0.011207075012
12	3573	1	0.019771035331
12	3573	1	0.014496303141
12	3573	1	0.014690964236
12	3573	1	0.014344128747
12	3614	1.01	0.011467409742
12	3614	1.01	0.01004496606
12	3614	1.01	0.019512099281
12	3614	1.01	0.018618699484
12	3614	1.01	0.013638196513
12	3614	1.01	0.010207700193
12	3614	1.01	0.011884132565
12	3643	1.02	0.018638990022
12	3643	1.02	0.017742106158
12	3643	1.02	0.016967302362
12	3643	1.02	0.019055205136
12	3643	1.02	0.017164351205
12	3643	1.02	0.018055885308
12	3643	1.02	0.016029686349
12	3643	1.02	0.013508461825
12	3643	1.02	0.011008820331
12	3643	1.02	0.028466758951
12	3643	1.02	0.022025026551
12	3643	1.02	0.021782332014

