version 2
run General-99-20191218-16:12:52-14076
attr configname General
attr datetime 20191218-16:12:52
attr experiment General
attr inifile omnetpp.ini
attr iterationvars ""
attr iterationvarsf ""
attr measurement ""
attr network CellularNetwork
attr processid 14076
attr repetition 99
attr replication #99
attr resultdir results
attr runnumber 99
attr seedset 99
param **.nUsers 10
param **.antenna.timeslot 0.01s
param **.user[*].lambda 0.008s

vector 0 CellularNetwork.antenna throughput:vector ETV
attr source throughput
vector 1 CellularNetwork.antenna NumServedUser:vector ETV
attr source NumServedUser
vector 2 CellularNetwork.antenna responseTime:vector ETV
attr source responseTime
0	48	0.01	0
0	69	0.02	659000
0	102	0.03	147500
0	139	0.04	108400
0	176	0.05	378000
0	219	0.06	468800
0	250	0.07	632000
0	285	0.08	208600
0	310	0.09	193800
0	343	0.1	176400
0	390	0.11	343200
0	429	0.12	453600
0	466	0.13	174000
0	497	0.14	615200
0	536	0.15	155400
0	571	0.16	412300
0	608	0.17	309400
0	657	0.18	270000
0	690	0.19	685800
0	731	0.2	220500
0	782	0.21	260800
0	821	0.22	184500
0	862	0.23	300000
0	887	0.24	66600
0	926	0.25	331800
0	963	0.26	697600
0	1012	0.27	532800
0	1051	0.28	237500
0	1098	0.29	612000
0	1125	0.3	433800
0	1164	0.31	188400
0	1191	0.32	420000
0	1230	0.33	134000
0	1251	0.34	439600
0	1282	0.35	51900
0	1323	0.36	184100
0	1356	0.37	302400
0	1381	0.38	89000
0	1414	0.39	80400
0	1461	0.4	298200
0	1492	0.41	440000
0	1537	0.42	426300
0	1570	0.43	381600
0	1605	0.44	259800
0	1644	0.45	58400
0	1679	0.46	694800
0	1714	0.47	99000
0	1753	0.48	438900
0	1790	0.49	83600
0	1823	0.5	375900
0	1866	0.51	164800
0	1909	0.52	125200
0	1948	0.53	146500
0	1983	0.54	482300
0	2010	0.55	155000
0	2041	0.56	537600
0	2078	0.57	272500
0	2105	0.58	700800
0	2134	0.59	121600
0	2159	0.6	146000
0	2212	0.61	119200
0	2257	0.62	320400
0	2294	0.63	430400
0	2323	0.64	256800
0	2356	0.65	247800
0	2383	0.66	72800
0	2414	0.67	259500
0	2451	0.68	450600
0	2482	0.69	327600
0	2519	0.7	144900
0	2552	0.71	308500
0	2583	0.72	420000
0	2620	0.73	134400
0	2651	0.74	601000
0	2678	0.75	156000
0	2725	0.76	82000
0	2746	0.77	96400
0	2789	0.78	526400
0	2826	0.79	560700
0	2853	0.8	166800
0	2906	0.81	122500
0	2939	0.82	43000
0	2966	0.83	424800
0	2999	0.84	531000
0	3026	0.85	332500
0	3053	0.86	123500
0	3096	0.87	240800
0	3119	0.88	456000
0	3154	0.89	134500
0	3189	0.9	380800
0	3210	0.91	175800
0	3247	0.92	183000
0	3292	0.93	124400
0	3321	0.94	70800
0	3354	0.95	246800
0	3385	0.96	678400
0	3422	0.97	337600
0	3453	0.98	282800
0	3496	0.99	127200
0	3553	1	182000
0	3586	1.01	597600
0	3619	1.02	40400
0	3648	1.03	856800
0	3681	1.04	319800
0	3726	1.05	263200
0	3755	1.06	376800
0	3792	1.07	214000
0	3829	1.08	418600
0	3880	1.09	248000
0	3913	1.1	160000
0	3950	1.11	669600
0	3991	1.12	290400
0	4034	1.13	90400
0	4075	1.14	197600
0	4120	1.15	652800
0	4165	1.16	114900
0	4204	1.17	489000
0	4251	1.18	254500
0	4284	1.19	123900
0	4335	1.2	487800
0	4374	1.21	303000
0	4411	1.22	348800
0	4442	1.23	497600
0	4477	1.24	261000
0	4494	1.25	436800
0	4531	1.26	466200
0	4566	1.27	438200
0	4597	1.28	353500
0	4630	1.29	231000
0	4671	1.3	380100
0	4714	1.31	121200
0	4747	1.32	693900
0	4792	1.33	230300
0	4825	1.34	91200
0	4872	1.35	275400
0	4909	1.36	944000
0	4952	1.37	280700
0	4977	1.38	205500
0	5002	1.39	301200
0	5047	1.4	117500
0	5078	1.41	244800
0	5103	1.42	288000
0	5138	1.43	294700
0	5177	1.44	247800
0	5210	1.45	186200
0	5257	1.46	513000
0	5284	1.47	404600
0	5321	1.48	41700
0	5350	1.49	723200
0	5405	1.5	277900
0	5452	1.51	301000
0	5483	1.52	277500
0	5510	1.53	55200
0	5555	1.54	1068000
0	5592	1.55	561600
0	5651	1.56	106500
0	5684	1.57	369600
0	5713	1.58	331200
0	5758	1.59	161000
0	5787	1.6	242800
0	5820	1.61	186500
0	5867	1.62	286000
0	5890	1.63	111200
0	5929	1.64	205500
0	5962	1.65	808200
0	6001	1.66	500800
0	6044	1.67	134000
0	6087	1.68	246000
0	6122	1.69	240000
0	6167	1.7	252000
0	6196	1.71	357600
0	6225	1.72	179500
0	6262	1.73	525600
0	6305	1.74	478400
0	6342	1.75	423000
0	6387	1.76	330400
0	6414	1.77	390400
0	6447	1.78	698400
0	6496	1.79	281400
0	6525	1.8	327600
0	6558	1.81	216500
0	6591	1.82	135200
0	6632	1.83	126800
0	6673	1.84	711000
0	6706	1.85	517500
0	6745	1.86	348000
0	6784	1.87	168600
0	6821	1.88	83700
0	6866	1.89	135600
0	6909	1.9	511000
0	6944	1.91	219000
0	6979	1.92	525600
0	7020	1.93	69300
0	7061	1.94	317400
0	7096	1.95	246400
0	7133	1.96	272500
0	7158	1.97	66900
0	7193	1.98	122000
0	7222	1.99	887400
0	7253	2	317000
0	7282	2.01	260000
0	7309	2.02	134400
0	7346	2.03	246600
0	7371	2.04	346500
0	7400	2.05	32400
0	7441	2.06	329000
0	7478	2.07	262200
0	7513	2.08	304200
0	7562	2.09	19600
0	7597	2.1	512800
0	7622	2.11	628200
0	7659	2.12	105000
0	7698	2.13	222600
0	7725	2.14	532700
0	7768	2.15	184800
0	7795	2.16	259200
0	7826	2.17	216600
0	7857	2.18	206400
0	7894	2.19	225400
0	7929	2.2	38700
0	7958	2.21	259500
0	7989	2.22	621000
0	8030	2.23	228200
0	8067	2.24	327200
0	8100	2.25	104000
0	8137	2.26	332400
0	8164	2.27	75600
0	8201	2.28	503300
0	8238	2.29	627200
0	8273	2.3	254000
0	8304	2.31	299400
0	8341	2.32	308000
0	8376	2.33	311500
0	8425	2.34	276000
0	8456	2.35	189000
0	8483	2.36	170000
0	8524	2.37	257000
0	8583	2.38	82000
0	8614	2.39	210600
0	8649	2.4	220000
0	8680	2.41	45600
0	8717	2.42	174400
0	8756	2.43	332400
0	8787	2.44	332000
0	8818	2.45	145500
0	8861	2.46	204000
0	8894	2.47	865800
0	8923	2.48	253800
0	8962	2.49	311400
0	9005	2.5	340800
0	9044	2.51	223300
0	9079	2.52	441000
0	9106	2.53	428000
0	9133	2.54	252000
0	9174	2.55	195600
0	9217	2.56	144500
0	9252	2.57	459000
0	9285	2.58	375900
0	9314	2.59	121500
0	9345	2.6	258600
0	9380	2.61	179500
0	9415	2.62	181500
0	9442	2.63	417200
0	9475	2.64	116800
0	9502	2.65	504900
0	9537	2.66	32100
0	9574	2.67	496800
0	9609	2.68	382400
0	9652	2.69	277200
0	9689	2.7	461700
0	9726	2.71	127500
0	9753	2.72	208800
0	9784	2.73	221400
0	9833	2.74	326900
0	9876	2.75	84400
0	9909	2.76	112000
0	9958	2.77	235500
0	9999	2.78	226800
0	10034	2.79	176500
0	10075	2.8	405000
0	10114	2.81	168600
0	10145	2.82	101400
0	10178	2.83	606200
0	10211	2.84	897300
0	10238	2.85	266700
0	10267	2.86	244800
0	10306	2.87	158500
0	10335	2.88	68400
0	10386	2.89	473900
0	10419	2.9	664200
0	10452	2.91	439200
0	10483	2.92	228200
0	10526	2.93	396000
0	10565	2.94	309000
0	10602	2.95	108000
0	10643	2.96	301700
0	10688	2.97	76500
0	10725	2.98	112200
0	10768	2.99	207500
0	10795	3	29600
0	10832	3.01	361800
0	10871	3.02	449000
0	10906	3.03	1142100
0	10955	3.04	210000
0	10992	3.05	213600
0	11039	3.06	30800
0	11086	3.07	400500
0	11127	3.08	293000
0	11158	3.09	432800
0	11189	3.1	207000
0	11226	3.11	469700
0	11271	3.12	341600
0	11320	3.13	181000
0	11363	3.14	80700
0	11414	3.15	223200
0	11449	3.16	227500
0	11484	3.17	204000
0	11523	3.18	124000
0	11554	3.19	78000
0	11603	3.2	412400
0	11652	3.21	25500
0	11689	3.22	184800
0	11720	3.23	71000
0	11749	3.24	284800
0	11784	3.25	159600
0	11825	3.26	332500
0	11868	3.27	170700
0	11895	3.28	90000
0	11928	3.29	574800
0	11959	3.3	141300
0	11994	3.31	728100
0	12045	3.32	559800
0	12088	3.33	665100
0	12127	3.34	340800
0	12162	3.35	134400
0	12195	3.36	335400
0	12242	3.37	61800
0	12271	3.38	212400
0	12320	3.39	117500
0	12355	3.4	86800
0	12390	3.41	724500
0	12415	3.42	803200
0	12454	3.43	78000
0	12485	3.44	382200
0	12514	3.45	63300
0	12545	3.46	676000
0	12578	3.47	350400
0	12619	3.48	279200
0	12650	3.49	311500
0	12683	3.5	464000
0	12736	3.51	335200
0	12763	3.52	168000
0	12808	3.53	339500
0	12847	3.54	74700
0	12892	3.55	117600
0	12931	3.56	350700
0	12968	3.57	244000
0	13015	3.58	215000
0	13042	3.59	59700
0	13089	3.6	459600
0	13134	3.61	1098000
0	13175	3.62	282800
0	13212	3.63	214000
0	13241	3.64	379400
0	13278	3.65	470400
0	13317	3.66	133800
0	13352	3.67	365400
0	13395	3.68	253400
0	13424	3.69	716800
0	13461	3.7	192000
0	13488	3.71	21000
0	13525	3.72	650400
0	13558	3.73	157500
0	13581	3.74	328200
0	13612	3.75	88000
0	13645	3.76	204600
0	13680	3.77	189600
0	13711	3.78	296800
0	13758	3.79	226800
0	13803	3.8	236000
0	13840	3.81	240000
0	13875	3.82	302500
0	13914	3.83	148800
0	13947	3.84	259000
0	13982	3.85	79500
0	14027	3.86	69900
0	14068	3.87	107200
0	14105	3.88	557400
0	14142	3.89	313800
0	14169	3.9	618100
0	14200	3.91	112000
0	14237	3.92	996100
0	14278	3.93	268000
0	14325	3.94	484000
0	14354	3.95	533700
0	14409	3.96	252000
0	14434	3.97	32400
0	14461	3.98	144400
0	14502	3.99	14600
0	14539	4	76200
0	14570	4.01	279600
0	14605	4.02	272000
0	14638	4.03	102900
0	14675	4.04	291900
0	14706	4.05	617600
0	14735	4.06	54600
0	14768	4.07	756000
0	14805	4.08	268800
0	14832	4.09	246400
0	14875	4.1	250800
0	14910	4.11	601200
0	14929	4.12	192000
0	14968	4.13	103000
0	15001	4.14	286400
0	15058	4.15	445900
0	15101	4.16	959000
0	15138	4.17	405600
0	15179	4.18	406400
0	15214	4.19	420000
0	15259	4.2	150800
0	15296	4.21	294700
0	15335	4.22	24600
0	15370	4.23	226400
0	15415	4.24	887400
0	15452	4.25	197000
0	15491	4.26	117000
0	15522	4.27	330600
0	15563	4.28	182000
0	15596	4.29	383600
0	15631	4.3	305900
0	15664	4.31	332000
0	15697	4.32	468300
0	15736	4.33	328000
0	15765	4.34	232200
0	15806	4.35	364700
0	15843	4.36	488700
0	15870	4.37	313600
0	15901	4.38	152600
0	15942	4.39	284000
0	15975	4.4	102000
0	16006	4.41	752400
0	16059	4.42	172800
0	16100	4.43	422400
0	16135	4.44	517500
0	16178	4.45	201500
0	16221	4.46	423000
0	16270	4.47	262500
0	16299	4.48	316000
0	16340	4.49	592900
0	16385	4.5	346800
0	16430	4.51	137600
0	16477	4.52	450900
0	16526	4.53	250800
0	16565	4.54	446400
0	16598	4.55	182000
0	16635	4.56	64800
0	16672	4.57	283000
0	16699	4.58	431400
0	16730	4.59	199500
0	16773	4.6	411000
0	16806	4.61	504000
0	16837	4.62	208000
0	16878	4.63	500400
0	16919	4.64	471600
0	16948	4.65	628000
0	16983	4.66	221200
0	17024	4.67	373800
0	17061	4.68	451800
0	17100	4.69	229500
0	17141	4.7	125500
0	17166	4.71	804600
0	17207	4.72	119000
0	17230	4.73	382900
0	17251	4.74	67500
0	17292	4.75	93600
0	17329	4.76	368000
0	17380	4.77	355200
0	17409	4.78	278400
0	17452	4.79	282000
0	17501	4.8	280800
0	17536	4.81	279500
0	17573	4.82	388500
0	17610	4.83	572000
0	17641	4.84	583200
0	17670	4.85	330400
0	17707	4.86	89000
0	17754	4.87	419200
0	17793	4.88	683100
0	17822	4.89	321300
0	17853	4.9	104800
0	17896	4.91	239400
0	17935	4.92	264600
0	17978	4.93	551200
0	18013	4.94	228600
0	18056	4.95	118800
0	18081	4.96	119600
0	18120	4.97	700000
0	18157	4.98	416400
0	18194	4.99	412800
0	18231	5	194600
0	18274	5.01	452000
0	18309	5.02	263500
0	18346	5.03	552800
0	18397	5.04	252600
0	18432	5.05	918000
0	18475	5.06	300300
0	18510	5.07	139000
0	18545	5.08	426400
0	18576	5.09	516800
0	18613	5.1	151500
0	18648	5.11	512100
0	18687	5.12	162000
0	18730	5.13	477000
0	18781	5.14	64400
0	18810	5.15	297000
0	18845	5.16	39900
0	18886	5.17	236400
0	18915	5.18	917100
0	18956	5.19	160400
0	18997	5.2	362400
0	19034	5.21	420000
0	19073	5.22	347400
0	19104	5.23	420000
0	19133	5.24	148200
0	19162	5.25	220500
0	19203	5.26	155400
0	19250	5.27	236500
0	19289	5.28	457100
0	19322	5.29	268000
0	19367	5.3	91500
0	19402	5.31	118000
0	19453	5.32	218400
0	19480	5.33	237600
0	19521	5.34	1089900
0	19576	5.35	192500
0	19607	5.36	669600
0	19646	5.37	193200
0	19685	5.38	148500
0	19724	5.39	183500
0	19767	5.4	473600
0	19806	5.41	781600
0	19841	5.42	232200
0	19876	5.43	379200
0	19905	5.44	211800
0	19944	5.45	74100
0	19977	5.46	515900
0	20012	5.47	73800
0	20047	5.48	607500
0	20078	5.49	330400
0	20111	5.5	175200
0	20142	5.51	100500
0	20185	5.52	247200
0	20216	5.53	398400
0	20257	5.54	144000
0	20288	5.55	259200
0	20337	5.56	93200
0	20374	5.57	566400
0	20409	5.58	733500
0	20456	5.59	366000
0	20501	5.6	236000
0	20524	5.61	291600
0	20557	5.62	404000
0	20598	5.63	117600
0	20639	5.64	154000
0	20672	5.65	16600
0	20709	5.66	677600
0	20750	5.67	1119600
0	20781	5.68	593000
0	20824	5.69	298200
0	20861	5.7	348800
0	20890	5.71	326200
0	20921	5.72	135600
0	20958	5.73	284800
0	20997	5.74	200000
0	21034	5.75	289100
0	21073	5.76	202500
0	21110	5.77	469600
0	21159	5.78	226800
0	21198	5.79	48600
0	21231	5.8	544000
0	21262	5.81	299000
0	21301	5.82	89000
0	21344	5.83	185500
0	21377	5.84	964800
0	21408	5.85	892000
0	21443	5.86	281400
0	21472	5.87	156100
0	21521	5.88	147000
0	21546	5.89	299000
0	21585	5.9	287000
0	21618	5.91	101100
0	21661	5.92	208500
0	21698	5.93	118000
0	21729	5.94	443400
0	21764	5.95	460800
0	21795	5.96	257000
0	21836	5.97	154500
0	21885	5.98	495600
0	21920	5.99	776000
0	21957	6	408800
0	21994	6.01	407200
0	22027	6.02	527800
0	22058	6.03	222000
0	22095	6.04	68400
0	22122	6.05	542400
0	22157	6.06	208200
0	22192	6.07	120800
0	22233	6.08	496800
0	22274	6.09	324800
0	22309	6.1	411200
0	22348	6.11	360500
0	22383	6.12	436800
0	22418	6.13	275000
0	22445	6.14	260400
0	22486	6.15	126400
0	22525	6.16	442400
0	22568	6.17	222600
0	22601	6.18	670400
0	22634	6.19	293300
0	22673	6.2	221000
0	22706	6.21	362600
0	22739	6.22	229200
0	22790	6.23	125600
0	22827	6.24	771200
0	22852	6.25	726000
0	22901	6.26	156000
0	22936	6.27	453600
0	22959	6.28	497600
0	22982	6.29	148500
0	23021	6.3	109800
0	23062	6.31	282800
0	23101	6.32	460600
0	23140	6.33	461700
0	23171	6.34	240100
0	23206	6.35	227500
0	23249	6.36	178200
0	23278	6.37	277500
0	23313	6.38	154000
0	23356	6.39	600300
0	23397	6.4	113600
0	23442	6.41	229600
0	23473	6.42	587300
0	23500	6.43	386500
0	23531	6.44	125500
0	23576	6.45	430500
0	23601	6.46	216000
0	23630	6.47	68700
0	23679	6.48	88500
0	23718	6.49	439800
0	23755	6.5	1112000
0	23788	6.51	442800
0	23835	6.52	247200
0	23872	6.53	106000
0	23911	6.54	613800
0	23952	6.55	443700
0	23987	6.56	332800
0	24028	6.57	320600
0	24069	6.58	488700
0	24098	6.59	452700
0	24133	6.6	182500
0	24162	6.61	117600
0	24193	6.62	84300
0	24228	6.63	555100
0	24263	6.64	596700
0	24298	6.65	311200
0	24335	6.66	303800
0	24372	6.67	379400
0	24405	6.68	205800
0	24444	6.69	318400
0	24475	6.7	484200
0	24500	6.71	235200
0	24531	6.72	97600
0	24572	6.73	363000
0	24603	6.74	462700
0	24632	6.75	493200
0	24655	6.76	159600
0	24702	6.77	130000
0	24737	6.78	305400
0	24766	6.79	316800
0	24793	6.8	281400
0	24832	6.81	74500
0	24877	6.82	380800
0	24916	6.83	772200
0	24949	6.84	309600
0	24982	6.85	133500
0	25011	6.86	378000
0	25042	6.87	265300
0	25083	6.88	170800
0	25128	6.89	357300
0	25157	6.9	332500
0	25186	6.91	41100
0	25219	6.92	450000
0	25250	6.93	30200
0	25301	6.94	471200
0	25330	6.95	209300
0	25363	6.96	343700
0	25398	6.97	305200
0	25429	6.98	322000
0	25470	6.99	214200
0	25501	7	557100
0	25526	7.01	184200
0	25565	7.02	147000
0	25600	7.03	430200
0	25645	7.04	367500
0	25670	7.05	526500
0	25711	7.06	117000
0	25752	7.07	317800
0	25793	7.08	263900
0	25840	7.09	183000
0	25881	7.1	298800
0	25912	7.11	709200
0	25943	7.12	207000
0	25978	7.13	273600
0	26011	7.14	125600
0	26048	7.15	300600
0	26079	7.16	591500
0	26112	7.17	319900
0	26141	7.18	134500
0	26174	7.19	367500
0	26213	7.2	244300
0	26260	7.21	351600
0	26297	7.22	39600
0	26330	7.23	211000
0	26369	7.24	73000
0	26400	7.25	690200
0	26431	7.26	90000
0	26468	7.27	438200
0	26505	7.28	99500
0	26540	7.29	150500
0	26571	7.3	579600
0	26610	7.31	164500
0	26639	7.32	108800
0	26672	7.33	504800
0	26707	7.34	295400
0	26750	7.35	249900
0	26783	7.36	359800
0	26826	7.37	372000
0	26853	7.38	324800
0	26888	7.39	160000
0	26921	7.4	113200
0	26952	7.41	307300
0	26999	7.42	553700
0	27042	7.43	297600
0	27079	7.44	354000
0	27112	7.45	508000
0	27159	7.46	162000
0	27196	7.47	104000
0	27243	7.48	62200
0	27276	7.49	296500
0	27305	7.5	654500
0	27328	7.51	288500
0	27365	7.52	87200
0	27396	7.53	618300
0	27421	7.54	225000
0	27464	7.55	108600
0	27495	7.56	359800
0	27548	7.57	194000
0	27589	7.58	235200
0	27622	7.59	249200
0	27659	7.6	367800
0	27698	7.61	203500
0	27759	7.62	201500
0	27796	7.63	267200
0	27821	7.64	175600
0	27862	7.65	1149300
0	27897	7.66	319900
0	27938	7.67	98400
0	27975	7.68	298200
0	28018	7.69	611100
0	28057	7.7	628800
0	28086	7.71	233400
0	28129	7.72	133800
0	28158	7.73	44400
0	28185	7.74	200000
0	28210	7.75	688000
0	28233	7.76	141500
0	28260	7.77	127600
0	28295	7.78	112400
0	28340	7.79	70500
0	28387	7.8	48000
0	28422	7.81	1260000
0	28469	7.82	292000
0	28500	7.83	39900
0	28533	7.84	100800
0	28568	7.85	114800
0	28595	7.86	1083600
0	28636	7.87	479700
0	28679	7.88	250200
0	28736	7.89	817600
0	28775	7.9	851000
0	28814	7.91	452200
0	28855	7.92	344400
0	28892	7.93	177500
0	28927	7.94	573300
0	28966	7.95	163800
0	29001	7.96	237000
0	29056	7.97	632000
0	29089	7.98	83600
0	29110	7.99	174500
0	29143	8	501900
0	29186	8.01	21800
0	29221	8.02	668000
0	29258	8.03	71400
0	29301	8.04	176500
0	29342	8.05	80800
0	29371	8.06	192900
0	29402	8.07	245000
0	29427	8.08	259500
0	29448	8.09	120400
0	29477	8.1	100000
0	29500	8.11	183500
0	29535	8.12	732600
0	29576	8.13	413000
0	29601	8.14	499500
0	29624	8.15	157000
0	29663	8.16	53500
0	29682	8.17	359200
0	29719	8.18	80800
0	29772	8.19	327600
0	29811	8.2	766000
0	29852	8.21	297500
0	29881	8.22	41400
0	29910	8.23	71500
0	29939	8.24	369600
0	29970	8.25	325500
0	30007	8.26	114800
0	30034	8.27	453600
0	30067	8.28	149500
0	30100	8.29	508800
0	30143	8.3	242900
0	30176	8.31	333900
0	30211	8.32	282100
0	30252	8.33	68700
0	30289	8.34	395500
0	30336	8.35	147600
0	30365	8.36	527100
0	30402	8.37	369600
0	30437	8.38	209300
0	30472	8.39	129200
0	30511	8.4	158000
0	30550	8.41	519300
0	30587	8.42	756900
0	30634	8.43	149000
0	30661	8.44	694400
0	30706	8.45	93000
0	30755	8.46	366800
0	30788	8.47	560800
0	30823	8.48	511200
0	30848	8.49	423900
0	30885	8.5	232200
0	30922	8.51	451200
0	30957	8.52	229000
0	31000	8.53	348000
0	31027	8.54	106800
0	31068	8.55	512800
0	31107	8.56	96400
0	31142	8.57	575200
0	31179	8.58	534600
0	31222	8.59	351000
0	31257	8.6	162000
0	31292	8.61	544500
0	31331	8.62	352800
0	31360	8.63	362400
0	31389	8.64	207000
0	31432	8.65	273600
0	31453	8.66	8500
0	31490	8.67	442800
0	31529	8.68	398300
0	31558	8.69	641000
0	31597	8.7	191400
0	31634	8.71	342300
0	31665	8.72	170500
0	31706	8.73	307200
0	31737	8.74	340800
0	31774	8.75	379800
0	31805	8.76	260400
0	31840	8.77	163000
0	31879	8.78	105500
0	31916	8.79	481600
0	31965	8.8	343200
0	32000	8.81	857600
0	32031	8.82	405600
0	32066	8.83	448000
0	32099	8.84	288400
0	32128	8.85	103000
0	32179	8.86	28400
0	32204	8.87	508000
0	32231	8.88	168500
0	32268	8.89	98800
0	32319	8.9	125600
0	32354	8.91	339500
0	32393	8.92	367000
0	32432	8.93	651200
0	32455	8.94	343700
0	32502	8.95	292200
0	32553	8.96	537600
0	32594	8.97	298900
0	32629	8.98	461300
0	32672	8.99	464000
0	32721	9	443200
0	32756	9.01	252800
0	32783	9.02	333900
0	32822	9.03	353500
0	32861	9.04	73500
0	32908	9.05	388200
0	32951	9.06	155500
0	32990	9.07	113400
0	33019	9.08	115200
0	33054	9.09	201600
0	33093	9.1	392400
0	33130	9.11	661600
0	33185	9.12	241200
0	33218	9.13	116000
0	33261	9.14	352800
0	33316	9.15	63300
0	33355	9.16	170800
0	33386	9.17	168000
0	33421	9.18	148400
0	33452	9.19	129000
0	33493	9.2	41600
0	33530	9.21	117600
0	33571	9.22	83200
0	33608	9.23	304200
0	33653	9.24	88200
0	33694	9.25	401500
0	33731	9.26	237300
0	33768	9.27	486000
0	33809	9.28	308000
0	33844	9.29	255000
0	33877	9.3	109600
0	33912	9.31	244000
0	33969	9.32	222000
0	34004	9.33	61600
0	34055	9.34	715200
0	34102	9.35	36200
0	34133	9.36	332400
0	34168	9.37	314000
0	34209	9.38	27300
0	34250	9.39	363300
0	34287	9.4	182500
0	34330	9.41	88400
0	34367	9.42	137400
0	34412	9.43	98400
0	34455	9.44	57100
0	34488	9.45	132400
0	34521	9.46	158500
0	34552	9.47	427600
0	34569	9.48	198500
0	34604	9.49	212100
0	34643	9.5	61200
0	34682	9.51	185200
0	34721	9.52	377200
0	34748	9.53	333600
0	34781	9.54	196000
0	34810	9.55	212400
0	34843	9.56	639900
0	34880	9.57	333200
0	34919	9.58	95200
0	34952	9.59	636800
0	34987	9.6	733600
0	35020	9.61	211500
0	35051	9.62	856800
0	35090	9.63	201600
0	35115	9.64	449100
0	35152	9.65	60900
0	35185	9.66	656100
0	35214	9.67	229800
0	35249	9.68	182500
0	35282	9.69	94400
0	35319	9.7	330000
0	35344	9.71	105200
0	35383	9.72	721800
0	35412	9.73	253600
0	35437	9.74	173600
0	35460	9.75	86000
0	35487	9.76	69600
0	35526	9.77	152000
0	35549	9.78	91500
0	35590	9.79	115600
0	35625	9.8	240000
0	35644	9.81	297000
0	35677	9.82	420700
0	35710	9.83	152000
0	35757	9.84	291200
0	35794	9.85	264600
0	35835	9.86	318000
0	35864	9.87	358400
0	35889	9.88	241800
0	35928	9.89	573300
0	35965	9.9	301700
0	36004	9.91	285600
0	36031	9.92	18200
0	36066	9.93	445900
0	36097	9.94	241800
0	36140	9.95	256000
0	36183	9.96	380100
0	36222	9.97	405300
0	36265	9.98	312000
0	36298	9.99	267000
0	36333	10	428000
1	48	0.01	0
1	69	0.02	10
1	102	0.03	5
1	139	0.04	4
1	176	0.05	9
1	219	0.06	8
1	250	0.07	10
1	285	0.08	7
1	310	0.09	6
1	343	0.1	6
1	390	0.11	8
1	429	0.12	8
1	466	0.13	4
1	497	0.14	8
1	536	0.15	6
1	571	0.16	7
1	608	0.17	7
1	657	0.18	5
1	690	0.19	9
1	731	0.2	7
1	782	0.21	8
1	821	0.22	5
1	862	0.23	6
1	887	0.24	3
1	926	0.25	7
1	963	0.26	8
1	1012	0.27	6
1	1051	0.28	5
1	1098	0.29	6
1	1125	0.3	6
1	1164	0.31	6
1	1191	0.32	7
1	1230	0.33	5
1	1251	0.34	7
1	1282	0.35	3
1	1323	0.36	7
1	1356	0.37	6
1	1381	0.38	5
1	1414	0.39	4
1	1461	0.4	6
1	1492	0.41	8
1	1537	0.42	7
1	1570	0.43	8
1	1605	0.44	6
1	1644	0.45	4
1	1679	0.46	9
1	1714	0.47	5
1	1753	0.48	7
1	1790	0.49	4
1	1823	0.5	7
1	1866	0.51	4
1	1909	0.52	4
1	1948	0.53	5
1	1983	0.54	7
1	2010	0.55	5
1	2041	0.56	7
1	2078	0.57	5
1	2105	0.58	8
1	2134	0.59	4
1	2159	0.6	5
1	2212	0.61	4
1	2257	0.62	6
1	2294	0.63	8
1	2323	0.64	4
1	2356	0.65	6
1	2383	0.66	4
1	2414	0.67	5
1	2451	0.68	6
1	2482	0.69	7
1	2519	0.7	7
1	2552	0.71	5
1	2583	0.72	8
1	2620	0.73	6
1	2651	0.74	10
1	2678	0.75	6
1	2725	0.76	5
1	2746	0.77	4
1	2789	0.78	8
1	2826	0.79	9
1	2853	0.8	6
1	2906	0.81	5
1	2939	0.82	2
1	2966	0.83	6
1	2999	0.84	6
1	3026	0.85	7
1	3053	0.86	5
1	3096	0.87	8
1	3119	0.88	8
1	3154	0.89	5
1	3189	0.9	8
1	3210	0.91	6
1	3247	0.92	6
1	3292	0.93	4
1	3321	0.94	3
1	3354	0.95	4
1	3385	0.96	8
1	3422	0.97	8
1	3453	0.98	7
1	3496	0.99	4
1	3553	1	7
1	3586	1.01	8
1	3619	1.02	4
1	3648	1.03	9
1	3681	1.04	6
1	3726	1.05	8
1	3755	1.06	8
1	3792	1.07	5
1	3829	1.08	7
1	3880	1.09	5
1	3913	1.1	5
1	3950	1.11	8
1	3991	1.12	6
1	4034	1.13	4
1	4075	1.14	4
1	4120	1.15	8
1	4165	1.16	3
1	4204	1.17	5
1	4251	1.18	5
1	4284	1.19	3
1	4335	1.2	6
1	4374	1.21	5
1	4411	1.22	8
1	4442	1.23	8
1	4477	1.24	5
1	4494	1.25	6
1	4531	1.26	7
1	4566	1.27	7
1	4597	1.28	7
1	4630	1.29	6
1	4671	1.3	7
1	4714	1.31	6
1	4747	1.32	9
1	4792	1.33	7
1	4825	1.34	4
1	4872	1.35	6
1	4909	1.36	10
1	4952	1.37	7
1	4977	1.38	5
1	5002	1.39	6
1	5047	1.4	5
1	5078	1.41	6
1	5103	1.42	6
1	5138	1.43	7
1	5177	1.44	7
1	5210	1.45	7
1	5257	1.46	9
1	5284	1.47	7
1	5321	1.48	3
1	5350	1.49	8
1	5405	1.5	7
1	5452	1.51	7
1	5483	1.52	5
1	5510	1.53	2
1	5555	1.54	10
1	5592	1.55	9
1	5651	1.56	5
1	5684	1.57	7
1	5713	1.58	6
1	5758	1.59	5
1	5787	1.6	4
1	5820	1.61	5
1	5867	1.62	5
1	5890	1.63	4
1	5929	1.64	5
1	5962	1.65	9
1	6001	1.66	8
1	6044	1.67	5
1	6087	1.68	6
1	6122	1.69	6
1	6167	1.7	5
1	6196	1.71	4
1	6225	1.72	5
1	6262	1.73	8
1	6305	1.74	8
1	6342	1.75	9
1	6387	1.76	7
1	6414	1.77	8
1	6447	1.78	8
1	6496	1.79	7
1	6525	1.8	6
1	6558	1.81	5
1	6591	1.82	4
1	6632	1.83	4
1	6673	1.84	9
1	6706	1.85	9
1	6745	1.86	8
1	6784	1.87	6
1	6821	1.88	3
1	6866	1.89	4
1	6909	1.9	7
1	6944	1.91	6
1	6979	1.92	8
1	7020	1.93	3
1	7061	1.94	6
1	7096	1.95	7
1	7133	1.96	5
1	7158	1.97	3
1	7193	1.98	4
1	7222	1.99	6
1	7253	2	5
1	7282	2.01	5
1	7309	2.02	6
1	7346	2.03	6
1	7371	2.04	7
1	7400	2.05	2
1	7441	2.06	7
1	7478	2.07	6
1	7513	2.08	6
1	7562	2.09	2
1	7597	2.1	8
1	7622	2.11	9
1	7659	2.12	5
1	7698	2.13	7
1	7725	2.14	7
1	7768	2.15	6
1	7795	2.16	8
1	7826	2.17	6
1	7857	2.18	6
1	7894	2.19	7
1	7929	2.2	3
1	7958	2.21	5
1	7989	2.22	9
1	8030	2.23	7
1	8067	2.24	8
1	8100	2.25	5
1	8137	2.26	6
1	8164	2.27	3
1	8201	2.28	7
1	8238	2.29	7
1	8273	2.3	5
1	8304	2.31	6
1	8341	2.32	8
1	8376	2.33	7
1	8425	2.34	6
1	8456	2.35	6
1	8483	2.36	5
1	8524	2.37	5
1	8583	2.38	4
1	8614	2.39	6
1	8649	2.4	5
1	8680	2.41	2
1	8717	2.42	4
1	8756	2.43	4
1	8787	2.44	4
1	8818	2.45	3
1	8861	2.46	6
1	8894	2.47	9
1	8923	2.48	6
1	8962	2.49	9
1	9005	2.5	8
1	9044	2.51	7
1	9079	2.52	7
1	9106	2.53	8
1	9133	2.54	7
1	9174	2.55	6
1	9217	2.56	5
1	9252	2.57	9
1	9285	2.58	7
1	9314	2.59	5
1	9345	2.6	6
1	9380	2.61	5
1	9415	2.62	5
1	9442	2.63	7
1	9475	2.64	4
1	9502	2.65	9
1	9537	2.66	3
1	9574	2.67	8
1	9609	2.68	8
1	9652	2.69	6
1	9689	2.7	9
1	9726	2.71	5
1	9753	2.72	6
1	9784	2.73	6
1	9833	2.74	7
1	9876	2.75	4
1	9909	2.76	4
1	9958	2.77	5
1	9999	2.78	4
1	10034	2.79	5
1	10075	2.8	6
1	10114	2.81	2
1	10145	2.82	3
1	10178	2.83	7
1	10211	2.84	9
1	10238	2.85	7
1	10267	2.86	6
1	10306	2.87	5
1	10335	2.88	3
1	10386	2.89	7
1	10419	2.9	9
1	10452	2.91	8
1	10483	2.92	7
1	10526	2.93	8
1	10565	2.94	6
1	10602	2.95	5
1	10643	2.96	7
1	10688	2.97	3
1	10725	2.98	3
1	10768	2.99	5
1	10795	3	2
1	10832	3.01	6
1	10871	3.02	5
1	10906	3.03	9
1	10955	3.04	7
1	10992	3.05	6
1	11039	3.06	2
1	11086	3.07	5
1	11127	3.08	5
1	11158	3.09	4
1	11189	3.1	5
1	11226	3.11	7
1	11271	3.12	7
1	11320	3.13	5
1	11363	3.14	3
1	11414	3.15	4
1	11449	3.16	5
1	11484	3.17	5
1	11523	3.18	4
1	11554	3.19	2
1	11603	3.2	4
1	11652	3.21	1
1	11689	3.22	4
1	11720	3.23	2
1	11749	3.24	4
1	11784	3.25	3
1	11825	3.26	5
1	11868	3.27	3
1	11895	3.28	3
1	11928	3.29	6
1	11959	3.3	3
1	11994	3.31	9
1	12045	3.32	9
1	12088	3.33	9
1	12127	3.34	8
1	12162	3.35	4
1	12195	3.36	6
1	12242	3.37	3
1	12271	3.38	6
1	12320	3.39	5
1	12355	3.4	2
1	12390	3.41	7
1	12415	3.42	8
1	12454	3.43	5
1	12485	3.44	7
1	12514	3.45	3
1	12545	3.46	8
1	12578	3.47	8
1	12619	3.48	8
1	12650	3.49	7
1	12683	3.5	8
1	12736	3.51	8
1	12763	3.52	5
1	12808	3.53	7
1	12847	3.54	3
1	12892	3.55	4
1	12931	3.56	7
1	12968	3.57	4
1	13015	3.58	5
1	13042	3.59	3
1	13089	3.6	6
1	13134	3.61	9
1	13175	3.62	7
1	13212	3.63	5
1	13241	3.64	7
1	13278	3.65	8
1	13317	3.66	6
1	13352	3.67	7
1	13395	3.68	7
1	13424	3.69	8
1	13461	3.7	6
1	13488	3.71	2
1	13525	3.72	8
1	13558	3.73	5
1	13581	3.74	6
1	13612	3.75	5
1	13645	3.76	6
1	13680	3.77	6
1	13711	3.78	7
1	13758	3.79	6
1	13803	3.8	5
1	13840	3.81	5
1	13875	3.82	5
1	13914	3.83	4
1	13947	3.84	5
1	13982	3.85	3
1	14027	3.86	3
1	14068	3.87	2
1	14105	3.88	6
1	14142	3.89	6
1	14169	3.9	7
1	14200	3.91	4
1	14237	3.92	7
1	14278	3.93	8
1	14325	3.94	8
1	14354	3.95	9
1	14409	3.96	6
1	14434	3.97	3
1	14461	3.98	4
1	14502	3.99	1
1	14539	4	2
1	14570	4.01	6
1	14605	4.02	5
1	14638	4.03	3
1	14675	4.04	7
1	14706	4.05	8
1	14735	4.06	2
1	14768	4.07	9
1	14805	4.08	7
1	14832	4.09	7
1	14875	4.1	6
1	14910	4.11	9
1	14929	4.12	6
1	14968	4.13	5
1	15001	4.14	8
1	15058	4.15	7
1	15101	4.16	10
1	15138	4.17	8
1	15179	4.18	8
1	15214	4.19	8
1	15259	4.2	4
1	15296	4.21	7
1	15335	4.22	3
1	15370	4.23	4
1	15415	4.24	9
1	15452	4.25	5
1	15491	4.26	5
1	15522	4.27	6
1	15563	4.28	5
1	15596	4.29	7
1	15631	4.3	7
1	15664	4.31	5
1	15697	4.32	7
1	15736	4.33	8
1	15765	4.34	6
1	15806	4.35	7
1	15843	4.36	9
1	15870	4.37	7
1	15901	4.38	7
1	15942	4.39	8
1	15975	4.4	4
1	16006	4.41	9
1	16059	4.42	6
1	16100	4.43	8
1	16135	4.44	9
1	16178	4.45	5
1	16221	4.46	9
1	16270	4.47	7
1	16299	4.48	8
1	16340	4.49	7
1	16385	4.5	6
1	16430	4.51	4
1	16477	4.52	9
1	16526	4.53	6
1	16565	4.54	6
1	16598	4.55	5
1	16635	4.56	2
1	16672	4.57	5
1	16699	4.58	6
1	16730	4.59	5
1	16773	4.6	6
1	16806	4.61	7
1	16837	4.62	5
1	16878	4.63	9
1	16919	4.64	9
1	16948	4.65	8
1	16983	4.66	7
1	17024	4.67	7
1	17061	4.68	9
1	17100	4.69	5
1	17141	4.7	5
1	17166	4.71	9
1	17207	4.72	5
1	17230	4.73	7
1	17251	4.74	5
1	17292	4.75	4
1	17329	4.76	8
1	17380	4.77	8
1	17409	4.78	6
1	17452	4.79	6
1	17501	4.8	6
1	17536	4.81	5
1	17573	4.82	7
1	17610	4.83	10
1	17641	4.84	8
1	17670	4.85	7
1	17707	4.86	5
1	17754	4.87	8
1	17793	4.88	9
1	17822	4.89	7
1	17853	4.9	4
1	17896	4.91	6
1	17935	4.92	6
1	17978	4.93	8
1	18013	4.94	6
1	18056	4.95	4
1	18081	4.96	4
1	18120	4.97	8
1	18157	4.98	6
1	18194	4.99	8
1	18231	5	7
1	18274	5.01	8
1	18309	5.02	5
1	18346	5.03	8
1	18397	5.04	6
1	18432	5.05	10
1	18475	5.06	7
1	18510	5.07	5
1	18545	5.08	8
1	18576	5.09	8
1	18613	5.1	5
1	18648	5.11	9
1	18687	5.12	6
1	18730	5.13	9
1	18781	5.14	4
1	18810	5.15	6
1	18845	5.16	3
1	18886	5.17	4
1	18915	5.18	9
1	18956	5.19	4
1	18997	5.2	8
1	19034	5.21	8
1	19073	5.22	9
1	19104	5.23	8
1	19133	5.24	6
1	19162	5.25	7
1	19203	5.26	6
1	19250	5.27	5
1	19289	5.28	7
1	19322	5.29	5
1	19367	5.3	3
1	19402	5.31	5
1	19453	5.32	6
1	19480	5.33	6
1	19521	5.34	7
1	19576	5.35	5
1	19607	5.36	8
1	19646	5.37	7
1	19685	5.38	5
1	19724	5.39	5
1	19767	5.4	8
1	19806	5.41	8
1	19841	5.42	6
1	19876	5.43	8
1	19905	5.44	6
1	19944	5.45	3
1	19977	5.46	7
1	20012	5.47	3
1	20047	5.48	9
1	20078	5.49	8
1	20111	5.5	6
1	20142	5.51	5
1	20185	5.52	6
1	20216	5.53	8
1	20257	5.54	6
1	20288	5.55	8
1	20337	5.56	4
1	20374	5.57	8
1	20409	5.58	9
1	20456	5.59	6
1	20501	5.6	5
1	20524	5.61	6
1	20557	5.62	8
1	20598	5.63	4
1	20639	5.64	5
1	20672	5.65	1
1	20709	5.66	8
1	20750	5.67	9
1	20781	5.68	10
1	20824	5.69	7
1	20861	5.7	8
1	20890	5.71	7
1	20921	5.72	4
1	20958	5.73	8
1	20997	5.74	5
1	21034	5.75	7
1	21073	5.76	5
1	21110	5.77	8
1	21159	5.78	6
1	21198	5.79	3
1	21231	5.8	8
1	21262	5.81	5
1	21301	5.82	5
1	21344	5.83	5
1	21377	5.84	8
1	21408	5.85	8
1	21443	5.86	7
1	21472	5.87	7
1	21521	5.88	6
1	21546	5.89	5
1	21585	5.9	7
1	21618	5.91	3
1	21661	5.92	5
1	21698	5.93	5
1	21729	5.94	6
1	21764	5.95	8
1	21795	5.96	5
1	21836	5.97	5
1	21885	5.98	7
1	21920	5.99	10
1	21957	6	8
1	21994	6.01	8
1	22027	6.02	7
1	22058	6.03	6
1	22095	6.04	4
1	22122	6.05	8
1	22157	6.06	6
1	22192	6.07	4
1	22233	6.08	6
1	22274	6.09	7
1	22309	6.1	8
1	22348	6.11	7
1	22383	6.12	7
1	22418	6.13	5
1	22445	6.14	7
1	22486	6.15	4
1	22525	6.16	8
1	22568	6.17	7
1	22601	6.18	8
1	22634	6.19	7
1	22673	6.2	5
1	22706	6.21	7
1	22739	6.22	6
1	22790	6.23	4
1	22827	6.24	8
1	22852	6.25	10
1	22901	6.26	6
1	22936	6.27	8
1	22959	6.28	8
1	22982	6.29	5
1	23021	6.3	6
1	23062	6.31	7
1	23101	6.32	7
1	23140	6.33	9
1	23171	6.34	7
1	23206	6.35	7
1	23249	6.36	6
1	23278	6.37	5
1	23313	6.38	4
1	23356	6.39	9
1	23397	6.4	4
1	23442	6.41	7
1	23473	6.42	7
1	23500	6.43	5
1	23531	6.44	5
1	23576	6.45	7
1	23601	6.46	6
1	23630	6.47	3
1	23679	6.48	5
1	23718	6.49	6
1	23755	6.5	10
1	23788	6.51	9
1	23835	6.52	6
1	23872	6.53	4
1	23911	6.54	9
1	23952	6.55	9
1	23987	6.56	8
1	24028	6.57	7
1	24069	6.58	9
1	24098	6.59	9
1	24133	6.6	5
1	24162	6.61	4
1	24193	6.62	3
1	24228	6.63	7
1	24263	6.64	9
1	24298	6.65	8
1	24335	6.66	7
1	24372	6.67	7
1	24405	6.68	6
1	24444	6.69	8
1	24475	6.7	9
1	24500	6.71	6
1	24531	6.72	4
1	24572	6.73	6
1	24603	6.74	7
1	24632	6.75	9
1	24655	6.76	6
1	24702	6.77	5
1	24737	6.78	6
1	24766	6.79	6
1	24793	6.8	7
1	24832	6.81	5
1	24877	6.82	7
1	24916	6.83	9
1	24949	6.84	6
1	24982	6.85	5
1	25011	6.86	7
1	25042	6.87	7
1	25083	6.88	7
1	25128	6.89	9
1	25157	6.9	7
1	25186	6.91	3
1	25219	6.92	6
1	25250	6.93	2
1	25301	6.94	8
1	25330	6.95	7
1	25363	6.96	7
1	25398	6.97	7
1	25429	6.98	7
1	25470	6.99	6
1	25501	7	9
1	25526	7.01	6
1	25565	7.02	6
1	25600	7.03	9
1	25645	7.04	7
1	25670	7.05	9
1	25711	7.06	5
1	25752	7.07	7
1	25793	7.08	7
1	25840	7.09	5
1	25881	7.1	6
1	25912	7.11	9
1	25943	7.12	6
1	25978	7.13	6
1	26011	7.14	4
1	26048	7.15	6
1	26079	7.16	7
1	26112	7.17	7
1	26141	7.18	5
1	26174	7.19	7
1	26213	7.2	7
1	26260	7.21	6
1	26297	7.22	3
1	26330	7.23	5
1	26369	7.24	2
1	26400	7.25	7
1	26431	7.26	4
1	26468	7.27	7
1	26505	7.28	5
1	26540	7.29	5
1	26571	7.3	7
1	26610	7.31	5
1	26639	7.32	4
1	26672	7.33	8
1	26707	7.34	7
1	26750	7.35	7
1	26783	7.36	7
1	26826	7.37	8
1	26853	7.38	8
1	26888	7.39	5
1	26921	7.4	4
1	26952	7.41	7
1	26999	7.42	7
1	27042	7.43	6
1	27079	7.44	6
1	27112	7.45	8
1	27159	7.46	6
1	27196	7.47	4
1	27243	7.48	2
1	27276	7.49	5
1	27305	7.5	7
1	27328	7.51	5
1	27365	7.52	4
1	27396	7.53	9
1	27421	7.54	6
1	27464	7.55	6
1	27495	7.56	7
1	27548	7.57	5
1	27589	7.58	7
1	27622	7.59	7
1	27659	7.6	6
1	27698	7.61	5
1	27759	7.62	5
1	27796	7.63	4
1	27821	7.64	4
1	27862	7.65	9
1	27897	7.66	7
1	27938	7.67	4
1	27975	7.68	6
1	28018	7.69	7
1	28057	7.7	8
1	28086	7.71	6
1	28129	7.72	6
1	28158	7.73	4
1	28185	7.74	4
1	28210	7.75	8
1	28233	7.76	5
1	28260	7.77	4
1	28295	7.78	4
1	28340	7.79	5
1	28387	7.8	3
1	28422	7.81	10
1	28469	7.82	5
1	28500	7.83	3
1	28533	7.84	3
1	28568	7.85	4
1	28595	7.86	9
1	28636	7.87	9
1	28679	7.88	6
1	28736	7.89	8
1	28775	7.9	10
1	28814	7.91	7
1	28855	7.92	7
1	28892	7.93	5
1	28927	7.94	9
1	28966	7.95	7
1	29001	7.96	6
1	29056	7.97	8
1	29089	7.98	4
1	29110	7.99	5
1	29143	8	7
1	29186	8.01	2
1	29221	8.02	8
1	29258	8.03	3
1	29301	8.04	5
1	29342	8.05	4
1	29371	8.06	3
1	29402	8.07	5
1	29427	8.08	5
1	29448	8.09	4
1	29477	8.1	4
1	29500	8.11	5
1	29535	8.12	9
1	29576	8.13	10
1	29601	8.14	9
1	29624	8.15	5
1	29663	8.16	5
1	29682	8.17	8
1	29719	8.18	4
1	29772	8.19	7
1	29811	8.2	10
1	29852	8.21	7
1	29881	8.22	3
1	29910	8.23	5
1	29939	8.24	7
1	29970	8.25	5
1	30007	8.26	4
1	30034	8.27	8
1	30067	8.28	5
1	30100	8.29	8
1	30143	8.3	7
1	30176	8.31	7
1	30211	8.32	7
1	30252	8.33	3
1	30289	8.34	7
1	30336	8.35	4
1	30365	8.36	7
1	30402	8.37	6
1	30437	8.38	7
1	30472	8.39	4
1	30511	8.4	4
1	30550	8.41	9
1	30587	8.42	9
1	30634	8.43	5
1	30661	8.44	8
1	30706	8.45	3
1	30755	8.46	7
1	30788	8.47	8
1	30823	8.48	9
1	30848	8.49	9
1	30885	8.5	6
1	30922	8.51	8
1	30957	8.52	5
1	31000	8.53	8
1	31027	8.54	4
1	31068	8.55	8
1	31107	8.56	4
1	31142	8.57	8
1	31179	8.58	9
1	31222	8.59	6
1	31257	8.6	5
1	31292	8.61	9
1	31331	8.62	7
1	31360	8.63	8
1	31389	8.64	6
1	31432	8.65	8
1	31453	8.66	1
1	31490	8.67	6
1	31529	8.68	7
1	31558	8.69	10
1	31597	8.7	6
1	31634	8.71	7
1	31665	8.72	5
1	31706	8.73	6
1	31737	8.74	6
1	31774	8.75	9
1	31805	8.76	7
1	31840	8.77	5
1	31879	8.78	5
1	31916	8.79	7
1	31965	8.8	8
1	32000	8.81	8
1	32031	8.82	8
1	32066	8.83	7
1	32099	8.84	7
1	32128	8.85	5
1	32179	8.86	2
1	32204	8.87	8
1	32231	8.88	5
1	32268	8.89	4
1	32319	8.9	4
1	32354	8.91	7
1	32393	8.92	5
1	32432	8.93	8
1	32455	8.94	7
1	32502	8.95	6
1	32553	8.96	8
1	32594	8.97	7
1	32629	8.98	7
1	32672	8.99	8
1	32721	9	8
1	32756	9.01	8
1	32783	9.02	7
1	32822	9.03	7
1	32861	9.04	3
1	32908	9.05	6
1	32951	9.06	5
1	32990	9.07	3
1	33019	9.08	2
1	33054	9.09	4
1	33093	9.1	6
1	33130	9.11	8
1	33185	9.12	6
1	33218	9.13	5
1	33261	9.14	6
1	33316	9.15	3
1	33355	9.16	4
1	33386	9.17	5
1	33421	9.18	4
1	33452	9.19	3
1	33493	9.2	1
1	33530	9.21	4
1	33571	9.22	2
1	33608	9.23	6
1	33653	9.24	3
1	33694	9.25	5
1	33731	9.26	3
1	33768	9.27	5
1	33809	9.28	5
1	33844	9.29	6
1	33877	9.3	4
1	33912	9.31	4
1	33969	9.32	4
1	34004	9.33	2
1	34055	9.34	8
1	34102	9.35	2
1	34133	9.36	4
1	34168	9.37	5
1	34209	9.38	1
1	34250	9.39	7
1	34287	9.4	5
1	34330	9.41	4
1	34367	9.42	3
1	34412	9.43	4
1	34455	9.44	1
1	34488	9.45	2
1	34521	9.46	5
1	34552	9.47	4
1	34569	9.48	5
1	34604	9.49	3
1	34643	9.5	2
1	34682	9.51	2
1	34721	9.52	4
1	34748	9.53	4
1	34781	9.54	5
1	34810	9.55	4
1	34843	9.56	9
1	34880	9.57	7
1	34919	9.58	4
1	34952	9.59	8
1	34987	9.6	8
1	35020	9.61	5
1	35051	9.62	8
1	35090	9.63	7
1	35115	9.64	9
1	35152	9.65	3
1	35185	9.66	9
1	35214	9.67	6
1	35249	9.68	5
1	35282	9.69	4
1	35319	9.7	6
1	35344	9.71	4
1	35383	9.72	9
1	35412	9.73	8
1	35437	9.74	7
1	35460	9.75	4
1	35487	9.76	4
1	35526	9.77	5
1	35549	9.78	5
1	35590	9.79	4
1	35625	9.8	6
1	35644	9.81	6
1	35677	9.82	7
1	35710	9.83	5
1	35757	9.84	8
1	35794	9.85	7
1	35835	9.86	6
1	35864	9.87	8
1	35889	9.88	6
1	35928	9.89	9
1	35965	9.9	7
1	36004	9.91	6
1	36031	9.92	2
1	36066	9.93	7
1	36097	9.94	6
1	36140	9.95	5
1	36183	9.96	7
1	36222	9.97	7
1	36265	9.98	6
1	36298	9.99	6
1	36333	10	8
2	69	0.02	0.02
2	69	0.02	0.016239227596
2	69	0.02	0.014756312134
2	69	0.02	0.02
2	69	0.02	0.01966726022
2	69	0.02	0.02
2	69	0.02	0.011037407921
2	69	0.02	0.010589240123
2	69	0.02	0.02
2	69	0.02	0.017564662937
2	69	0.02	0.02
2	69	0.02	0.019385289105
2	69	0.02	0.02
2	69	0.02	0.02
2	69	0.02	0.019085993973
2	69	0.02	0.02
2	69	0.02	0.02
2	69	0.02	0.018722249873
2	69	0.02	0.014194933017
2	69	0.02	0.013524007657
2	69	0.02	0.011889699853
2	69	0.02	0.02
2	69	0.02	0.016780782346
2	102	0.03	0.014008671531
2	102	0.03	0.019110363646
2	102	0.03	0.015275228938
2	102	0.03	0.01046148192
2	102	0.03	0.015957744911
2	139	0.04	0.013318544671
2	139	0.04	0.019944535446
2	139	0.04	0.018089064803
2	139	0.04	0.015504385809
2	139	0.04	0.019873047607
2	139	0.04	0.015614321078
2	139	0.04	0.012192145597
2	176	0.05	0.010733069075
2	176	0.05	0.017171444997
2	176	0.05	0.012920096966
2	176	0.05	0.012552936884
2	176	0.05	0.015476251338
2	176	0.05	0.011712775327
2	176	0.05	0.013309119195
2	176	0.05	0.011651029186
2	176	0.05	0.01936627055
2	176	0.05	0.029508010778
2	176	0.05	0.013585247883
2	176	0.05	0.015518537608
2	176	0.05	0.029042601319
2	219	0.06	0.01471290358
2	219	0.06	0.012535610641
2	219	0.06	0.010112509484
2	219	0.06	0.016041159332
2	219	0.06	0.013772546376
2	219	0.06	0.013436781457
2	219	0.06	0.017808088271
2	219	0.06	0.01998919979
2	219	0.06	0.017650500753
2	219	0.06	0.014605764134
2	219	0.06	0.020204961352
2	219	0.06	0.01942100761
2	219	0.06	0.014466454896
2	219	0.06	0.014243949719
2	219	0.06	0.033417578406
2	219	0.06	0.032613615954
2	219	0.06	0.020831964876
2	250	0.07	0.011212096914
2	250	0.07	0.019170503803
2	250	0.07	0.015176019896
2	250	0.07	0.013850287563
2	250	0.07	0.011615665915
2	250	0.07	0.017769686772
2	250	0.07	0.013431435008
2	250	0.07	0.017484542721
2	250	0.07	0.019510435811
2	250	0.07	0.018815131647
2	250	0.07	0.016423168226
2	250	0.07	0.01107331088
2	250	0.07	0.010493800075
2	250	0.07	0.014513934078
2	250	0.07	0.013854642894
2	285	0.08	0.012032601233
2	285	0.08	0.014414662207
2	285	0.08	0.018515431957
2	285	0.08	0.018346740918
2	285	0.08	0.019676924624
2	285	0.08	0.011977598039
2	285	0.08	0.015097553443
2	285	0.08	0.021058722417
2	285	0.08	0.015898834291
2	310	0.09	0.011726261968
2	310	0.09	0.011017578085
2	310	0.09	0.019185170349
2	310	0.09	0.017055447154
2	310	0.09	0.014939594818
2	310	0.09	0.019633704377
2	310	0.09	0.019476655017
2	310	0.09	0.026645952697
2	310	0.09	0.02110654514
2	310	0.09	0.012776491337
2	343	0.1	0.018647696484
2	343	0.1	0.010563333892
2	343	0.1	0.017583632265
2	343	0.1	0.02895921092
2	343	0.1	0.026410883369
2	343	0.1	0.01898526738
2	343	0.1	0.013399254559
2	343	0.1	0.029585346989
2	343	0.1	0.02313556196
2	343	0.1	0.010025346855
2	390	0.11	0.015248381008
2	390	0.11	0.019025614585
2	390	0.11	0.012240405715
2	390	0.11	0.016014259777
2	390	0.11	0.018729284831
2	390	0.11	0.01506054541
2	390	0.11	0.016740185374
2	390	0.11	0.01082618293
2	390	0.11	0.017179926467
2	390	0.11	0.015662536341
2	390	0.11	0.029670712433
2	390	0.11	0.010623707756
2	429	0.12	0.017365418099
2	429	0.12	0.017345012261
2	429	0.12	0.011258999338
2	429	0.12	0.014763229887
2	429	0.12	0.010526275444
2	429	0.12	0.010331174418
2	429	0.12	0.019178388811
2	429	0.12	0.018641978399
2	429	0.12	0.016657320682
2	429	0.12	0.01444303669
2	429	0.12	0.012486609848
2	429	0.12	0.018266377726
2	429	0.12	0.014198946176
2	429	0.12	0.017273315047
2	429	0.12	0.019659058395
2	466	0.13	0.011786187045
2	466	0.13	0.015616482899
2	466	0.13	0.015290187407
2	466	0.13	0.01446075817
2	466	0.13	0.010226238201
2	466	0.13	0.016621676928
2	466	0.13	0.0108546601
2	466	0.13	0.018936179459
2	466	0.13	0.017409685231
2	497	0.14	0.020715095887
2	497	0.14	0.035213409319
2	497	0.14	0.0133452544
2	497	0.14	0.033719232532
2	497	0.14	0.029612401744
2	497	0.14	0.023065178461
2	497	0.14	0.021109676033
2	497	0.14	0.032053886418
2	497	0.14	0.020563600492
2	497	0.14	0.019453807485
2	497	0.14	0.015621225653
2	497	0.14	0.010357538515
2	497	0.14	0.017112495509
2	497	0.14	0.016894245299
2	497	0.14	0.01197798319
2	497	0.14	0.011701622338
2	497	0.14	0.010553515777
2	497	0.14	0.018011743343
2	497	0.14	0.015136622432
2	497	0.14	0.014652444171
2	497	0.14	0.012674123074
2	536	0.15	0.019811356713
2	536	0.15	0.017745526151
2	536	0.15	0.015233550863
2	536	0.15	0.014757271243
2	536	0.15	0.013308576665
2	536	0.15	0.015011731414
2	536	0.15	0.017226993818
2	536	0.15	0.016397837946
2	536	0.15	0.017477609438
2	571	0.16	0.012354614007
2	571	0.16	0.018491313343
2	571	0.16	0.019047679331
2	571	0.16	0.015520336659
2	571	0.16	0.01026262442
2	571	0.16	0.014733283694
2	571	0.16	0.010536938493
2	571	0.16	0.016612258479
2	571	0.16	0.015458231544
2	571	0.16	0.027085923463
2	571	0.16	0.017697717292
2	571	0.16	0.013712062285
2	571	0.16	0.013452950895
2	571	0.16	0.011462315499
2	571	0.16	0.010052089858
2	608	0.17	0.018985037356
2	608	0.17	0.014875245812
2	608	0.17	0.018282794336
2	608	0.17	0.017287911472
2	608	0.17	0.013037223184
2	608	0.17	0.018647410427
2	608	0.17	0.019751026504
2	608	0.17	0.01309370387
2	608	0.17	0.014289177149
2	657	0.18	0.014665473234
2	657	0.18	0.015482716074
2	657	0.18	0.01460876036
2	657	0.18	0.015077866484
2	657	0.18	0.013298500205
2	657	0.18	0.01224120851
2	657	0.18	0.029711353087
2	657	0.18	0.026344800679
2	657	0.18	0.024847018354
2	657	0.18	0.019995954384
2	657	0.18	0.017292863876
2	657	0.18	0.011061244708
2	657	0.18	0.013466324763
2	690	0.19	0.02561414382
2	690	0.19	0.01060497703
2	690	0.19	0.013030016583
2	690	0.19	0.015792492142
2	690	0.19	0.021743530786
2	690	0.19	0.01262156974
2	690	0.19	0.019159969727
2	690	0.19	0.015652372801
2	690	0.19	0.019171244784
2	690	0.19	0.018782941383
2	690	0.19	0.013902015288
2	690	0.19	0.013082387697
2	690	0.19	0.014222707483
2	690	0.19	0.018918136105
2	690	0.19	0.01056704724
2	690	0.19	0.025586337866
2	690	0.19	0.01778841872
2	690	0.19	0.017354928483
2	690	0.19	0.01210797881
2	731	0.2	0.025915823771
2	731	0.2	0.017688336768
2	731	0.2	0.017273570536
2	731	0.2	0.016139298643
2	731	0.2	0.015855098957
2	731	0.2	0.015714107225
2	731	0.2	0.012860525687
2	731	0.2	0.010455680604
2	731	0.2	0.016183339416
2	731	0.2	0.018550930481
2	731	0.2	0.012101451297
2	782	0.21	0.014878960736
2	782	0.21	0.016276641773
2	782	0.21	0.01029229949
2	782	0.21	0.011176266648
2	782	0.21	0.015291689008
2	782	0.21	0.015140829204
2	782	0.21	0.010130814477
2	782	0.21	0.032287227422
2	782	0.21	0.018574141003
2	821	0.22	0.019230748631
2	821	0.22	0.013975712417
2	821	0.22	0.010649063738
2	821	0.22	0.019043003165
2	821	0.22	0.01666053225
2	821	0.22	0.014808675898
2	821	0.22	0.01672784642
2	821	0.22	0.016159743052
2	821	0.22	0.021459157552
2	862	0.23	0.015846122919
2	862	0.23	0.028802561265
2	862	0.23	0.025463274011
2	862	0.23	0.021629345447
2	862	0.23	0.018255350714
2	862	0.23	0.017575744122
2	862	0.23	0.022634516552
2	862	0.23	0.018582175352
2	862	0.23	0.018470700584
2	862	0.23	0.050318382343
2	862	0.23	0.047118762069
2	862	0.23	0.037729838156
2	862	0.23	0.037645726486
2	887	0.24	0.013118666986
2	887	0.24	0.010076244991
2	887	0.24	0.019767006386
2	887	0.24	0.011783334343
2	887	0.24	0.04795304478
2	926	0.25	0.028719134611
2	926	0.25	0.022008177197
2	926	0.25	0.014887976139
2	926	0.25	0.022674408451
2	926	0.25	0.018084939463
2	926	0.25	0.017035680631
2	926	0.25	0.015525057384
2	926	0.25	0.05649609674
2	926	0.25	0.045264204924
2	926	0.25	0.044945021223
2	926	0.25	0.049495623013
2	926	0.25	0.052951167125
2	963	0.26	0.019475025822
2	963	0.26	0.017834458163
2	963	0.26	0.018948984629
2	963	0.26	0.017325119662
2	963	0.26	0.014557461508
2	963	0.26	0.01637162742
2	963	0.26	0.011154869219
2	963	0.26	0.052411022126
2	963	0.26	0.049062226105
2	963	0.26	0.048703911344
2	963	0.26	0.044026728729
2	963	0.26	0.038386706005
2	963	0.26	0.030872309643
2	963	0.26	0.021874994635
2	963	0.26	0.04925876029
2	963	0.26	0.04188926514
2	963	0.26	0.041855375356
2	963	0.26	0.038714274099
2	963	0.26	0.033814493371
2	963	0.26	0.033524856649
2	963	0.26	0.05369129417
2	963	0.26	0.053356296943
2	1012	0.27	0.070005145595
2	1012	0.27	0.065298933611
2	1012	0.27	0.062885271555
2	1012	0.27	0.056714001073
2	1012	0.27	0.054955425367
2	1012	0.27	0.046803433663
2	1012	0.27	0.033576569437
2	1012	0.27	0.028822608942
2	1012	0.27	0.028457958768
2	1012	0.27	0.026858985624
2	1012	0.27	0.025943477483
2	1012	0.27	0.018694205376
2	1012	0.27	0.011447539176
2	1012	0.27	0.010572086842
2	1012	0.27	0.019911911879
2	1012	0.27	0.015990563467
2	1012	0.27	0.018796392771
2	1012	0.27	0.011311088165
2	1012	0.27	0.011044447828
2	1012	0.27	0.043079560005
2	1051	0.28	0.016957994681
2	1051	0.28	0.013017548587
2	1051	0.28	0.019467949745
2	1051	0.28	0.013322066275
2	1051	0.28	0.012237000672
2	1051	0.28	0.014935895271
2	1051	0.28	0.01470379948
2	1051	0.28	0.014407678977
2	1051	0.28	0.018021894114
2	1051	0.28	0.012641495769
2	1051	0.28	0.010893484909
2	1098	0.29	0.061220273751
2	1098	0.29	0.054822567706
2	1098	0.29	0.046545081319
2	1098	0.29	0.042529103249
2	1098	0.29	0.030990374581
2	1098	0.29	0.026198203279
2	1098	0.29	0.026007477257
2	1098	0.29	0.011655272147
2	1098	0.29	0.071648476055
2	1098	0.29	0.044476416718
2	1098	0.29	0.039701858976
2	1098	0.29	0.032019609394
2	1098	0.29	0.028458897959
2	1098	0.29	0.026206340172
2	1098	0.29	0.022202777658
2	1098	0.29	0.018902276949
2	1098	0.29	0.013748974456
2	1098	0.29	0.019466013693
2	1098	0.29	0.012385853331
2	1098	0.29	0.019918885196
2	1098	0.29	0.013804984095
2	1098	0.29	0.013600397201
2	1098	0.29	0.019615946772
2	1098	0.29	0.015827979542
2	1098	0.29	0.015800875366
2	1098	0.29	0.025519072858
2	1098	0.29	0.021852723399
2	1125	0.3	0.033590960155
2	1125	0.3	0.019714037916
2	1125	0.3	0.012799087408
2	1125	0.3	0.012112553562
2	1125	0.3	0.047458832006
2	1125	0.3	0.042146350506
2	1125	0.3	0.024762249013
2	1125	0.3	0.015938156833
2	1125	0.3	0.017378384893
2	1125	0.3	0.012705066775
2	1125	0.3	0.0123363919
2	1125	0.3	0.020065236754
2	1125	0.3	0.019707597656
2	1125	0.3	0.017368499014
2	1125	0.3	0.016547397362
2	1125	0.3	0.013047186951
2	1125	0.3	0.012640030892
2	1125	0.3	0.019197486688
2	1164	0.31	0.033512626318
2	1164	0.31	0.020122326231
2	1164	0.31	0.013719542067
2	1164	0.31	0.016151463676
2	1164	0.31	0.01457810089
2	1164	0.31	0.014770967946
2	1164	0.31	0.029164598176
2	1164	0.31	0.023526061484
2	1164	0.31	0.020231310036
2	1164	0.31	0.018323375794
2	1191	0.32	0.017505791332
2	1191	0.32	0.016717173433
2	1191	0.32	0.018726277235
2	1191	0.32	0.013882058638
2	1191	0.32	0.013435721049
2	1191	0.32	0.011829531539
2	1191	0.32	0.018233304504
2	1191	0.32	0.012823722569
2	1191	0.32	0.015723770841
2	1191	0.32	0.010096476635
2	1191	0.32	0.019655321089
2	1191	0.32	0.01018233841
2	1191	0.32	0.023000348491
2	1191	0.32	0.017730978194
2	1191	0.32	0.012143984052
2	1230	0.33	0.014766930155
2	1230	0.33	0.015010912111
2	1230	0.33	0.014472242437
2	1230	0.33	0.012960532847
2	1230	0.33	0.015401204715
2	1230	0.33	0.010249893539
2	1230	0.33	0.019628039125
2	1230	0.33	0.018386569016
2	1251	0.34	0.059028040529
2	1251	0.34	0.046214442922
2	1251	0.34	0.046034095238
2	1251	0.34	0.019624867902
2	1251	0.34	0.011620912449
2	1251	0.34	0.0154260035
2	1251	0.34	0.013453428055
2	1251	0.34	0.015043144632
2	1251	0.34	0.016179531628
2	1251	0.34	0.019683653039
2	1251	0.34	0.017476184761
2	1251	0.34	0.015415026572
2	1251	0.34	0.014701949278
2	1251	0.34	0.018490482999
2	1251	0.34	0.01220006695
2	1251	0.34	0.012120183522
2	1251	0.34	0.010645047534
2	1282	0.35	0.015299611587
2	1282	0.35	0.015840280348
2	1282	0.35	0.015391374442
2	1282	0.35	0.014591116822
2	1282	0.35	0.010067800097
2	1323	0.36	0.017002849741
2	1323	0.36	0.014546375881
2	1323	0.36	0.01869369464
2	1323	0.36	0.014390784269
2	1323	0.36	0.013297178196
2	1323	0.36	0.014816742808
2	1323	0.36	0.013390244529
2	1323	0.36	0.011365377818
2	1323	0.36	0.018352929793
2	1323	0.36	0.011844589876
2	1356	0.37	0.016560278909
2	1356	0.37	0.010652127983
2	1356	0.37	0.014292208426
2	1356	0.37	0.018768514971
2	1356	0.37	0.010438869972
2	1356	0.37	0.016976115836
2	1356	0.37	0.015831897946
2	1356	0.37	0.012561717167
2	1356	0.37	0.012689736274
2	1356	0.37	0.018759069919
2	1356	0.37	0.018085267627
2	1356	0.37	0.01792163131
2	1356	0.37	0.016456471761
2	1356	0.37	0.016377897388
2	1356	0.37	0.015107490199
2	1381	0.38	0.015940693685
2	1381	0.38	0.015192786919
2	1381	0.38	0.019879723465
2	1381	0.38	0.01950168128
2	1381	0.38	0.016046477908
2	1381	0.38	0.017951679498
2	1381	0.38	0.010718951179
2	1414	0.39	0.017351715981
2	1414	0.39	0.016575490538
2	1414	0.39	0.011453650255
2	1414	0.39	0.011418568352
2	1414	0.39	0.02142841417
2	1414	0.39	0.012628166477
2	1461	0.4	0.017294593857
2	1461	0.4	0.015957913312
2	1461	0.4	0.018216075452
2	1461	0.4	0.017456068798
2	1461	0.4	0.03891186094
2	1461	0.4	0.030720766968
2	1461	0.4	0.022372334468
2	1461	0.4	0.019361232256
2	1461	0.4	0.016645690443
2	1461	0.4	0.032126853267
2	1461	0.4	0.029332809959
2	1461	0.4	0.01063830213
2	1492	0.41	0.020220096668
2	1492	0.41	0.017165650023
2	1492	0.41	0.013473891783
2	1492	0.41	0.012808903281
2	1492	0.41	0.011237511053
2	1492	0.41	0.02745784481
2	1492	0.41	0.020311091015
2	1492	0.41	0.016545084048
2	1492	0.41	0.013637667568
2	1492	0.41	0.012147516775
2	1492	0.41	0.010898621517
2	1492	0.41	0.021324855918
2	1492	0.41	0.016654449449
2	1492	0.41	0.017812742469
2	1492	0.41	0.012876335856
2	1492	0.41	0.015423181074
2	1492	0.41	0.010047790411
2	1492	0.41	0.010219598723
2	1537	0.42	0.019641200478
2	1537	0.42	0.015821137403
2	1537	0.42	0.013547184692
2	1537	0.42	0.016525302801
2	1537	0.42	0.024835471217
2	1537	0.42	0.011029395266
2	1537	0.42	0.029823523027
2	1537	0.42	0.025527607631
2	1537	0.42	0.023933581094
2	1537	0.42	0.013442732669
2	1537	0.42	0.019883202295
2	1537	0.42	0.018911449791
2	1537	0.42	0.016365146104
2	1537	0.42	0.011420067889
2	1570	0.43	0.012462657288
2	1570	0.43	0.011758208992
2	1570	0.43	0.010487133089
2	1570	0.43	0.019235638524
2	1570	0.43	0.019047646087
2	1570	0.43	0.014434347
2	1570	0.43	0.011533391775
2	1570	0.43	0.010683646532
2	1570	0.43	0.013790108152
2	1570	0.43	0.01844953273
2	1570	0.43	0.015085224134
2	1570	0.43	0.015494049224
2	1570	0.43	0.013037399048
2	1570	0.43	0.017854415482
2	1570	0.43	0.017986561136
2	1570	0.43	0.013750201533
2	1570	0.43	0.01127626085
2	1605	0.44	0.017954711594
2	1605	0.44	0.014456474702
2	1605	0.44	0.010990082038
2	1605	0.44	0.012192791048
2	1605	0.44	0.017544156996
2	1605	0.44	0.01744436056
2	1605	0.44	0.014050382168
2	1605	0.44	0.014874541294
2	1605	0.44	0.010656085566
2	1605	0.44	0.016477566252
2	1605	0.44	0.010927703323
2	1644	0.45	0.011040953629
2	1644	0.45	0.019186398633
2	1644	0.45	0.015049028901
2	1644	0.45	0.013814065978
2	1644	0.45	0.015342037798
2	1679	0.46	0.014133781999
2	1679	0.46	0.019495097183
2	1679	0.46	0.016226307807
2	1679	0.46	0.015424359451
2	1679	0.46	0.013286003786
2	1679	0.46	0.019045132403
2	1679	0.46	0.012319194899
2	1679	0.46	0.010291367552
2	1679	0.46	0.026008845559
2	1679	0.46	0.025859724068
2	1679	0.46	0.025444926631
2	1679	0.46	0.018980631642
2	1679	0.46	0.010268469773
2	1679	0.46	0.01754647262
2	1679	0.46	0.029481190418
2	1679	0.46	0.027745155949
2	1679	0.46	0.025389500265
2	1679	0.46	0.016837233173
2	1679	0.46	0.014029126619
2	1679	0.46	0.011432917664
2	1679	0.46	0.022377794345
2	1714	0.47	0.01631902
2	1714	0.47	0.014194529745
2	1714	0.47	0.012255175665
2	1714	0.47	0.015870312492
2	1714	0.47	0.013741450326
2	1753	0.48	0.010087934006
2	1753	0.48	0.017559478932
2	1753	0.48	0.019875315631
2	1753	0.48	0.019219806208
2	1753	0.48	0.016601750109
2	1753	0.48	0.013998284507
2	1753	0.48	0.028786051471
2	1753	0.48	0.025381961627
2	1753	0.48	0.016801691345
2	1753	0.48	0.014996203468
2	1753	0.48	0.014817726994
2	1753	0.48	0.015039966666
2	1753	0.48	0.013927011977
2	1753	0.48	0.029071436325
2	1753	0.48	0.028648363719
2	1753	0.48	0.024937705149
2	1753	0.48	0.023563650346
2	1753	0.48	0.02722661823
2	1753	0.48	0.012611931387
2	1790	0.49	0.011346055751
2	1790	0.49	0.012667160632
2	1790	0.49	0.018356906808
2	1790	0.49	0.015380705307
2	1790	0.49	0.011480592148
2	1823	0.5	0.012113558578
2	1823	0.5	0.014334872175
2	1823	0.5	0.022273587883
2	1823	0.5	0.011330717309
2	1823	0.5	0.01158357176
2	1823	0.5	0.011341399084
2	1823	0.5	0.026339212203
2	1823	0.5	0.021355808476
2	1823	0.5	0.013065402711
2	1823	0.5	0.010729344251
2	1823	0.5	0.013415401896
2	1823	0.5	0.029149873177
2	1823	0.5	0.023164159676
2	1823	0.5	0.01562159409
2	1866	0.51	0.030691007384
2	1866	0.51	0.025452275874
2	1866	0.51	0.012450058174
2	1866	0.51	0.034435019609
2	1866	0.51	0.030149059782
2	1866	0.51	0.020649006804
2	1866	0.51	0.017947219291
2	1866	0.51	0.014894245561
2	1866	0.51	0.037255789901
2	1866	0.51	0.015433947551
2	1909	0.52	0.019646445531
2	1909	0.52	0.019501453313
2	1909	0.52	0.018056871726
2	1909	0.52	0.035781743149
2	1909	0.52	0.031364156275
2	1909	0.52	0.013540774784
2	1909	0.52	0.012449877334
2	1909	0.52	0.020198714285
2	1909	0.52	0.018965429038
2	1909	0.52	0.017146811318
2	1948	0.53	0.026023366
2	1948	0.53	0.01704349587
2	1948	0.53	0.012523592962
2	1948	0.53	0.03656063629
2	1948	0.53	0.028339897362
2	1948	0.53	0.016135405073
2	1948	0.53	0.01251222992
2	1948	0.53	0.010292947492
2	1948	0.53	0.016732519026
2	1983	0.54	0.017108803689
2	1983	0.54	0.022696476521
2	1983	0.54	0.022467365724
2	1983	0.54	0.014585639217
2	1983	0.54	0.041954349601
2	1983	0.54	0.037385258935
2	1983	0.54	0.036277036962
2	1983	0.54	0.033026802997
2	1983	0.54	0.033010035485
2	1983	0.54	0.025111557068
2	1983	0.54	0.021041869969
2	1983	0.54	0.019880127212
2	1983	0.54	0.031271836585
2	1983	0.54	0.02997493509
2	1983	0.54	0.049448081011
2	1983	0.54	0.012246745652
2	1983	0.54	0.012256614839
2	1983	0.54	0.011778771864
2	2010	0.55	0.015411910286
2	2010	0.55	0.010487901014
2	2010	0.55	0.022634099232
2	2010	0.55	0.039054288927
2	2010	0.55	0.038122382901
2	2010	0.55	0.023529928732
2	2010	0.55	0.016057941314
2	2041	0.56	0.014747856079
2	2041	0.56	0.010450610758
2	2041	0.56	0.013882058907
2	2041	0.56	0.014909766662
2	2041	0.56	0.065879903915
2	2041	0.56	0.063322161795
2	2041	0.56	0.055770517161
2	2041	0.56	0.052436788288
2	2041	0.56	0.068322977076
2	2041	0.56	0.048531586434
2	2041	0.56	0.047248970266
2	2041	0.56	0.020294654336
2	2041	0.56	0.013951593128
2	2041	0.56	0.030074544313
2	2041	0.56	0.026735802061
2	2041	0.56	0.021941112638
2	2041	0.56	0.019856765048
2	2041	0.56	0.011677214157
2	2078	0.57	0.018334626223
2	2078	0.57	0.017456846629
2	2078	0.57	0.016694694292
2	2078	0.57	0.048294811719
2	2078	0.57	0.040055821752
2	2078	0.57	0.037372845912
2	2078	0.57	0.037017138263
2	2078	0.57	0.0342188815
2	2078	0.57	0.031773125754
2	2078	0.57	0.020977304414
2	2078	0.57	0.055892633363
2	2105	0.58	0.020030810303
2	2105	0.58	0.01312598133
2	2105	0.58	0.029192241868
2	2105	0.58	0.025917727909
2	2105	0.58	0.029847148915
2	2105	0.58	0.011753149829
2	2105	0.58	0.011423641404
2	2105	0.58	0.01076404139
2	2105	0.58	0.016648605661
2	2105	0.58	0.017075714045
2	2105	0.58	0.011539912882
2	2105	0.58	0.010169622319
2	2105	0.58	0.014070151811
2	2105	0.58	0.012429942666
2	2105	0.58	0.011886069126
2	2105	0.58	0.029308001562
2	2105	0.58	0.026257129573
2	2105	0.58	0.010631139448
2	2105	0.58	0.059573038735
2	2134	0.59	0.02312027265
2	2134	0.59	0.019724177118
2	2134	0.59	0.01170139146
2	2134	0.59	0.016108017737
2	2134	0.59	0.017987459933
2	2134	0.59	0.010013606695
2	2159	0.6	0.018902629424
2	2159	0.6	0.016630456441
2	2159	0.6	0.072909569923
2	2159	0.6	0.070097723705
2	2159	0.6	0.064432143206
2	2159	0.6	0.060522148884
2	2159	0.6	0.049345331325
2	2159	0.6	0.012963674444
2	2159	0.6	0.011229152611
2	2159	0.6	0.018598463673
2	2159	0.6	0.01618827237
2	2212	0.61	0.01534148741
2	2212	0.61	0.039335900833
2	2212	0.61	0.038204162144
2	2212	0.61	0.033259500081
2	2212	0.61	0.027322406349
2	2212	0.61	0.019995936016
2	2212	0.61	0.013637722073
2	2212	0.61	0.020347343665
2	2257	0.62	0.01927592409
2	2257	0.62	0.015878274321
2	2257	0.62	0.015196218551
2	2257	0.62	0.019413330281
2	2257	0.62	0.014219176415
2	2257	0.62	0.012382875043
2	2257	0.62	0.026177290466
2	2257	0.62	0.024376948441
2	2257	0.62	0.018506590125
2	2257	0.62	0.017006443789
2	2257	0.62	0.015769033313
2	2257	0.62	0.012345667749
2	2257	0.62	0.018843848107
2	2257	0.62	0.019785374079
2	2294	0.63	0.036400347326
2	2294	0.63	0.012606951663
2	2294	0.63	0.035386792124
2	2294	0.63	0.029491688393
2	2294	0.63	0.023439432644
2	2294	0.63	0.022302962779
2	2294	0.63	0.04193205977
2	2294	0.63	0.025332190498
2	2294	0.63	0.011248548838
2	2294	0.63	0.018100734409
2	2294	0.63	0.015775129398
2	2294	0.63	0.01177887316
2	2294	0.63	0.014849352978
2	2294	0.63	0.026635869243
2	2323	0.64	0.039103486057
2	2323	0.64	0.037011890805
2	2323	0.64	0.033416273404
2	2323	0.64	0.032004548554
2	2323	0.64	0.029110053395
2	2323	0.64	0.027742440859
2	2323	0.64	0.022958043519
2	2323	0.64	0.020217377791
2	2323	0.64	0.016641416491
2	2323	0.64	0.02799254356
2	2323	0.64	0.025264121721
2	2323	0.64	0.023903045413
2	2323	0.64	0.021733755294
2	2323	0.64	0.024136314086
2	2323	0.64	0.01493220631
2	2323	0.64	0.013730189665
2	2323	0.64	0.019918342379
2	2323	0.64	0.016325868969
2	2323	0.64	0.014188497782
2	2356	0.65	0.011026350215
2	2356	0.65	0.01892683817
2	2356	0.65	0.016919171348
2	2356	0.65	0.01591979009
2	2356	0.65	0.019126555531
2	2356	0.65	0.016966756151
2	2356	0.65	0.025831775253
2	2356	0.65	0.025777294505
2	2356	0.65	0.031941953711
2	2356	0.65	0.030682950556
2	2356	0.65	0.022159312189
2	2383	0.66	0.015188911734
2	2383	0.66	0.01872571712
2	2383	0.66	0.016329380556
2	2383	0.66	0.015233529466
2	2383	0.66	0.011699330877
2	2383	0.66	0.013283105951
2	2414	0.67	0.019832841506
2	2414	0.67	0.037803113143
2	2414	0.67	0.027408198277
2	2414	0.67	0.022987770946
2	2414	0.67	0.015720939769
2	2414	0.67	0.042803443291
2	2414	0.67	0.042146949628
2	2414	0.67	0.040944593181
2	2414	0.67	0.035094734081
2	2414	0.67	0.020054409544
2	2414	0.67	0.013917378351
2	2414	0.67	0.014562539228
2	2414	0.67	0.014266859808
2	2414	0.67	0.013087407381
2	2414	0.67	0.012020150669
2	2451	0.68	0.050308437308
2	2451	0.68	0.048608887514
2	2451	0.68	0.03779755572
2	2451	0.68	0.035658120315
2	2451	0.68	0.028030967213
2	2451	0.68	0.015639203388
2	2451	0.68	0.017473039408
2	2451	0.68	0.016385267591
2	2451	0.68	0.010898877827
2	2451	0.68	0.010730969476
2	2451	0.68	0.011143728104
2	2451	0.68	0.010292952565
2	2451	0.68	0.010808827142
2	2451	0.68	0.015086495685
2	2451	0.68	0.011168434212
2	2482	0.69	0.01831095442
2	2482	0.69	0.016590594917
2	2482	0.69	0.019489521412
2	2482	0.69	0.015241415093
2	2482	0.69	0.013856330588
2	2482	0.69	0.016470676554
2	2482	0.69	0.015072090721
2	2482	0.69	0.019700787939
2	2482	0.69	0.015747808486
2	2482	0.69	0.017307336183
2	2482	0.69	0.018726989024
2	2482	0.69	0.011990451574
2	2519	0.7	0.012166416887
2	2519	0.7	0.013571442167
2	2519	0.7	0.019230181886
2	2519	0.7	0.014508590182
2	2519	0.7	0.01852640543
2	2519	0.7	0.015426118768
2	2519	0.7	0.01064715443
2	2519	0.7	0.018327210252
2	2519	0.7	0.011181411666
2	2552	0.71	0.01773467413
2	2552	0.71	0.018259354417
2	2552	0.71	0.014967653325
2	2552	0.71	0.033031866854
2	2552	0.71	0.026576086719
2	2552	0.71	0.014114567718
2	2552	0.71	0.013779052061
2	2552	0.71	0.01091745182
2	2552	0.71	0.017450938886
2	2552	0.71	0.01349862657
2	2552	0.71	0.012184965932
2	2552	0.71	0.018381733519
2	2552	0.71	0.015598679042
2	2583	0.72	0.024203479877
2	2583	0.72	0.015370032866
2	2583	0.72	0.010672436619
2	2583	0.72	0.01633196828
2	2583	0.72	0.013653465175
2	2583	0.72	0.012709679547
2	2583	0.72	0.015273380842
2	2583	0.72	0.014419146991
2	2583	0.72	0.010244390084
2	2583	0.72	0.016121624098
2	2583	0.72	0.010004975691
2	2583	0.72	0.024650554265
2	2583	0.72	0.019188540736
2	2620	0.73	0.013164619035
2	2620	0.73	0.016459247857
2	2620	0.73	0.018497428919
2	2620	0.73	0.012232120757
2	2620	0.73	0.013810848266
2	2620	0.73	0.011703800281
2	2620	0.73	0.017551136763
2	2620	0.73	0.010597773215
2	2620	0.73	0.010742445107
2	2651	0.74	0.017131059895
2	2651	0.74	0.011889546796
2	2651	0.74	0.019819819918
2	2651	0.74	0.014178815239
2	2651	0.74	0.019481245711
2	2651	0.74	0.0145146653
2	2651	0.74	0.012267358285
2	2651	0.74	0.017141972995
2	2651	0.74	0.017331304752
2	2651	0.74	0.017100816168
2	2651	0.74	0.015662934882
2	2651	0.74	0.020724268155
2	2651	0.74	0.017553881991
2	2651	0.74	0.015365421438
2	2678	0.75	0.011330300906
2	2678	0.75	0.018068280311
2	2678	0.75	0.011295192448
2	2678	0.75	0.01582390398
2	2678	0.75	0.014860032816
2	2678	0.75	0.014269019199
2	2678	0.75	0.011660525274
2	2678	0.75	0.011438684701
2	2678	0.75	0.017416554029
2	2678	0.75	0.011281502579
2	2725	0.76	0.013223077527
2	2725	0.76	0.012063355815
2	2725	0.76	0.014172273096
2	2725	0.76	0.014971740829
2	2725	0.76	0.014407987379
2	2725	0.76	0.011397873148
2	2746	0.77	0.014160039612
2	2746	0.77	0.010172337926
2	2746	0.77	0.014685417993
2	2746	0.77	0.017951886431
2	2746	0.77	0.015086815217
2	2746	0.77	0.014764846589
2	2789	0.78	0.039606142831
2	2789	0.78	0.026411412178
2	2789	0.78	0.025726887486
2	2789	0.78	0.024505789497
2	2789	0.78	0.022179417445
2	2789	0.78	0.020897558406
2	2789	0.78	0.022658826406
2	2789	0.78	0.020917257095
2	2789	0.78	0.020488761527
2	2789	0.78	0.030211240582
2	2789	0.78	0.023428310598
2	2789	0.78	0.020538679787
2	2789	0.78	0.020001293216
2	2789	0.78	0.013606832788
2	2789	0.78	0.012751216276
2	2789	0.78	0.01824311799
2	2789	0.78	0.01045257372
2	2789	0.78	0.020875212522
2	2826	0.79	0.016270073743
2	2826	0.79	0.015261194699
2	2826	0.79	0.015040022668
2	2826	0.79	0.016270681847
2	2826	0.79	0.012497239781
2	2826	0.79	0.017113554633
2	2826	0.79	0.010065183227
2	2826	0.79	0.020234423762
2	2826	0.79	0.011726811064
2	2826	0.79	0.011556228957
2	2826	0.79	0.017170963227
2	2826	0.79	0.013120447241
2	2826	0.79	0.0123800132
2	2826	0.79	0.013361258004
2	2826	0.79	0.01745591242
2	2826	0.79	0.016277053809
2	2826	0.79	0.012290512099
2	2853	0.8	0.01803245962
2	2853	0.8	0.010515229112
2	2853	0.8	0.017153958261
2	2853	0.8	0.015327086005
2	2853	0.8	0.018458982517
2	2853	0.8	0.019724644633
2	2853	0.8	0.015623025708
2	2853	0.8	0.012349341276
2	2853	0.8	0.011221686008
2	2853	0.8	0.018562356949
2	2906	0.81	0.020929913724
2	2906	0.81	0.013516605956
2	2906	0.81	0.016450595396
2	2906	0.81	0.019566337216
2	2906	0.81	0.021273646759
2	2939	0.82	0.026305600184
2	2939	0.82	0.016690819176
2	2939	0.82	0.012087199078
2	2939	0.82	0.010909154974
2	2939	0.82	0.027965543332
2	2966	0.83	0.027866857248
2	2966	0.83	0.021962932927
2	2966	0.83	0.020605627954
2	2966	0.83	0.018916275255
2	2966	0.83	0.034651065822
2	2966	0.83	0.02566076263
2	2966	0.83	0.020492583098
2	2966	0.83	0.01419122414
2	2966	0.83	0.011520575971
2	2966	0.83	0.040008016931
2	2966	0.83	0.02892909028
2	2966	0.83	0.026192059268
2	2966	0.83	0.025805739722
2	2966	0.83	0.024943119054
2	2966	0.83	0.030299389972
2	2966	0.83	0.020018425178
2	2999	0.84	0.030729415985
2	2999	0.84	0.028015712363
2	2999	0.84	0.015043881529
2	2999	0.84	0.042828871156
2	2999	0.84	0.033117496583
2	2999	0.84	0.03033999614
2	2999	0.84	0.029413666419
2	2999	0.84	0.021728097569
2	2999	0.84	0.026735141497
2	2999	0.84	0.019777896271
2	2999	0.84	0.033325464717
2	2999	0.84	0.032516061681
2	2999	0.84	0.031269518686
2	2999	0.84	0.028916481277
2	2999	0.84	0.024311850171
2	2999	0.84	0.019377931526
2	2999	0.84	0.039679153051
2	2999	0.84	0.030102897184
2	2999	0.84	0.022618962049
2	2999	0.84	0.02094398218
2	2999	0.84	0.018447987264
2	2999	0.84	0.018433218591
2	2999	0.84	0.013020728384
2	3026	0.85	0.019748829693
2	3026	0.85	0.014501749032
2	3026	0.85	0.01138309065
2	3026	0.85	0.010350051304
2	3026	0.85	0.023146184957
2	3026	0.85	0.021798571685
2	3026	0.85	0.019197135399
2	3026	0.85	0.017223949327
2	3026	0.85	0.010732269633
2	3026	0.85	0.01369407375
2	3026	0.85	0.01010572453
2	3026	0.85	0.019302873959
2	3053	0.86	0.019009259988
2	3053	0.86	0.014246013564
2	3053	0.86	0.019871660334
2	3053	0.86	0.0161387078
2	3053	0.86	0.029013713013
2	3053	0.86	0.010945733818
2	3053	0.86	0.014466454337
2	3053	0.86	0.016503437577
2	3053	0.86	0.013907558473
2	3096	0.87	0.019575790547
2	3096	0.87	0.019983109171
2	3096	0.87	0.010216506658
2	3096	0.87	0.015022742134
2	3096	0.87	0.011979694741
2	3096	0.87	0.01696348789
2	3096	0.87	0.01691768297
2	3096	0.87	0.01883906054
2	3119	0.88	0.018498488881
2	3119	0.88	0.014659877154
2	3119	0.88	0.010863630843
2	3119	0.88	0.014251061591
2	3119	0.88	0.013392296332
2	3119	0.88	0.01219780216
2	3119	0.88	0.014287458238
2	3119	0.88	0.013763578737
2	3119	0.88	0.018410372684
2	3119	0.88	0.016181341121
2	3119	0.88	0.012640387453
2	3119	0.88	0.017293021348
2	3119	0.88	0.014115376161
2	3119	0.88	0.018044928015
2	3119	0.88	0.016449683988
2	3154	0.89	0.018279373141
2	3154	0.89	0.017950459308
2	3154	0.89	0.013447976806
2	3154	0.89	0.011323159076
2	3154	0.89	0.024773049241
2	3154	0.89	0.018450828044
2	3154	0.89	0.013349415238
2	3189	0.9	0.015501905516
2	3189	0.9	0.016234051311
2	3189	0.9	0.01549683994
2	3189	0.9	0.014607189413
2	3189	0.9	0.016851168514
2	3189	0.9	0.015049099173
2	3189	0.9	0.013654191386
2	3189	0.9	0.013017477981
2	3189	0.9	0.018463466943
2	3189	0.9	0.015422269149
2	3189	0.9	0.018742256624
2	3189	0.9	0.014747812833
2	3210	0.91	0.019938912907
2	3210	0.91	0.013765600967
2	3210	0.91	0.011334484727
2	3210	0.91	0.018193668227
2	3210	0.91	0.013892661978
2	3210	0.91	0.010233027014
2	3210	0.91	0.014356955388
2	3210	0.91	0.012386766394
2	3247	0.92	0.010697115312
2	3247	0.92	0.028660627929
2	3247	0.92	0.010938191147
2	3247	0.92	0.011889345282
2	3247	0.92	0.02385613773
2	3247	0.92	0.017092131429
2	3247	0.92	0.022555801906
2	3247	0.92	0.019984103681
2	3247	0.92	0.020948603265
2	3292	0.93	0.016825607721
2	3292	0.93	0.014741005437
2	3292	0.93	0.016399121752
2	3292	0.93	0.012476560979
2	3292	0.93	0.018196074802
2	3292	0.93	0.01331473417
2	3292	0.93	0.010619649644
2	3321	0.94	0.017572323981
2	3321	0.94	0.014952395834
2	3321	0.94	0.014790413053
2	3321	0.94	0.017040224236
2	3321	0.94	0.013414256958
2	3354	0.95	0.03396678976
2	3354	0.95	0.028168327121
2	3354	0.95	0.02802526287
2	3354	0.95	0.023448303192
2	3354	0.95	0.016684098469
2	3354	0.95	0.015373436264
2	3354	0.95	0.018460298216
2	3354	0.95	0.016260964758
2	3354	0.95	0.036129325872
2	3354	0.95	0.024303850942
2	3354	0.95	0.028109067627
2	3354	0.95	0.023197369955
2	3354	0.95	0.01890433017
2	3354	0.95	0.01159949139
2	3385	0.96	0.047263447177
2	3385	0.96	0.04306372377
2	3385	0.96	0.040617076883
2	3385	0.96	0.035614764669
2	3385	0.96	0.034765500439
2	3385	0.96	0.026880388009
2	3385	0.96	0.039997937263
2	3385	0.96	0.030999572414
2	3385	0.96	0.026784654071
2	3385	0.96	0.012279870707
2	3385	0.96	0.047902693261
2	3385	0.96	0.032172781066
2	3385	0.96	0.015827409586
2	3385	0.96	0.015936446598
2	3385	0.96	0.01125868623
2	3385	0.96	0.034931396735
2	3385	0.96	0.010576486112
2	3385	0.96	0.021725974837
2	3385	0.96	0.013136940378
2	3385	0.96	0.017091193523
2	3422	0.97	0.018422241757
2	3422	0.97	0.016457504788
2	3422	0.97	0.011717195409
2	3422	0.97	0.018981528918
2	3422	0.97	0.018256384079
2	3422	0.97	0.024603388456
2	3422	0.97	0.016678984572
2	3422	0.97	0.014049726872
2	3422	0.97	0.026111740158
2	3453	0.98	0.013262378791
2	3453	0.98	0.01028554756
2	3453	0.98	0.018622994273
2	3453	0.98	0.012722687743
2	3453	0.98	0.017747785079
2	3453	0.98	0.019194792729
2	3453	0.98	0.010625540177
2	3453	0.98	0.030323821482
2	3453	0.98	0.028918867363
2	3453	0.98	0.018760318
2	3453	0.98	0.02309096209
2	3453	0.98	0.013776374702
2	3453	0.98	0.01102589053
2	3496	0.99	0.017108529632
2	3496	0.99	0.015046558535
2	3496	0.99	0.011730440003
2	3496	0.99	0.018109450978
2	3496	0.99	0.028225850077
2	3496	0.99	0.020416896428
2	3496	0.99	0.014653148638
2	3496	0.99	0.014629863748
2	3553	1	0.017934062676
2	3553	1	0.015731341631
2	3553	1	0.011691428351
2	3553	1	0.01357731418
2	3553	1	0.017901673378
2	3553	1	0.019352200374
2	3553	1	0.014110912783
2	3553	1	0.023114774329
2	3553	1	0.029642595208
2	3586	1.01	0.019588403346
2	3586	1.01	0.018897786135
2	3586	1.01	0.010693156955
2	3586	1.01	0.018697864288
2	3586	1.01	0.013455316583
2	3586	1.01	0.01193683086
2	3586	1.01	0.011649954894
2	3586	1.01	0.012712688338
2	3586	1.01	0.016074162709
2	3586	1.01	0.013206303157
2	3586	1.01	0.015358564069
2	3586	1.01	0.033669384672
2	3586	1.01	0.023418288289
2	3586	1.01	0.021766266511
2	3586	1.01	0.021256196539
2	3586	1.01	0.015953474005
2	3586	1.01	0.025317869695
2	3586	1.01	0.021011454173
2	3586	1.01	0.063266339588
2	3586	1.01	0.059373544201
2	3619	1.02	0.018945671691
2	3619	1.02	0.02056044651
2	3619	1.02	0.017365297378
2	3619	1.02	0.01351398853
2	3619	1.02	0.055896781216
2	3648	1.03	0.017131103213
2	3648	1.03	0.012426630236
2	3648	1.03	0.029297796905
2	3648	1.03	0.026922910035
2	3648	1.03	0.025179181603
2	3648	1.03	0.02263573382
2	3648	1.03	0.015670526753
2	3648	1.03	0.010828297653
2	3648	1.03	0.017874963656
2	3648	1.03	0.039117311519
2	3648	1.03	0.03405559731
2	3648	1.03	0.033825971902
2	3648	1.03	0.030842508814
2	3648	1.03	0.031594361818
2	3648	1.03	0.029938398376
2	3648	1.03	0.023621438206
2	3648	1.03	0.022375289199
2	3648	1.03	0.013246220132
2	3648	1.03	0.013241000789
2	3648	1.03	0.018552922988
2	3648	1.03	0.01746764622
2	3648	1.03	0.013505675744
2	3648	1.03	0.054124162775
2	3648	1.03	0.045761647869
2	3648	1.03	0.043648742509
2	3648	1.03	0.04320458279
2	3648	1.03	0.042833525379
2	3681	1.04	0.019515099244
2	3681	1.04	0.019760643163
2	3681	1.04	0.010850457068
2	3681	1.04	0.019561687016
2	3681	1.04	0.016784780189
2	3681	1.04	0.012512668116
2	3681	1.04	0.010158015544
2	3681	1.04	0.0482925456
2	3681	1.04	0.047689378691
2	3681	1.04	0.047429262361
2	3681	1.04	0.046517948691
2	3681	1.04	0.041777655607
2	3681	1.04	0.034384132373
2	3681	1.04	0.02556064406
2	3681	1.04	0.014154408301
2	3681	1.04	0.012260598407
2	3726	1.05	0.015917391894
2	3726	1.05	0.015678616938
2	3726	1.05	0.013907876067
2	3726	1.05	0.018375026501
2	3726	1.05	0.019783590754
2	3726	1.05	0.01128582755
2	3726	1.05	0.011197998365
2	3726	1.05	0.019690912618
2	3726	1.05	0.016823088397
2	3726	1.05	0.011583886773
2	3726	1.05	0.015920853857
2	3755	1.06	0.015515500829
2	3755	1.06	0.019308533092
2	3755	1.06	0.012519991884
2	3755	1.06	0.015644928719
2	3755	1.06	0.014053592436
2	3755	1.06	0.019138261254
2	3755	1.06	0.011773674867
2	3755	1.06	0.019782556313
2	3755	1.06	0.01935253139
2	3755	1.06	0.016219799158
2	3755	1.06	0.013272971697
2	3755	1.06	0.013271168725
2	3755	1.06	0.013607169403
2	3755	1.06	0.018084366272
2	3755	1.06	0.018089446737
2	3755	1.06	0.010498874543
2	3792	1.07	0.017210670973
2	3792	1.07	0.015987960482
2	3792	1.07	0.019135564648
2	3792	1.07	0.010395778888
2	3792	1.07	0.025592031811
2	3792	1.07	0.011782578414
2	3792	1.07	0.016495832899
2	3792	1.07	0.014066208335
2	3792	1.07	0.011951413662
2	3792	1.07	0.014826409367
2	3829	1.08	0.018824212437
2	3829	1.08	0.016574687374
2	3829	1.08	0.010903034289
2	3829	1.08	0.01019851362
2	3829	1.08	0.016583563221
2	3829	1.08	0.017206206459
2	3829	1.08	0.012938540223
2	3829	1.08	0.018514817469
2	3829	1.08	0.017326128151
2	3829	1.08	0.016527081181
2	3829	1.08	0.018205945089
2	3829	1.08	0.013119988806
2	3829	1.08	0.012263946523
2	3880	1.09	0.018855685281
2	3880	1.09	0.015997113264
2	3880	1.09	0.013560457545
2	3880	1.09	0.014657262152
2	3880	1.09	0.013184136747
2	3880	1.09	0.018100765344
2	3880	1.09	0.014092614673
2	3880	1.09	0.017032996947
2	3880	1.09	0.015083704984
2	3880	1.09	0.010392807447
2	3913	1.1	0.01927092581
2	3913	1.1	0.018962605192
2	3913	1.1	0.010855984353
2	3913	1.1	0.010571088164
2	3913	1.1	0.015305591441
2	3913	1.1	0.01382404285
2	3913	1.1	0.010715716454
2	3913	1.1	0.015697003322
2	3913	1.1	0.013052665217
2	3950	1.11	0.014645371854
2	3950	1.11	0.024684581689
2	3950	1.11	0.019011842854
2	3950	1.11	0.016737285989
2	3950	1.11	0.023190717508
2	3950	1.11	0.020083676312
2	3950	1.11	0.01780559889
2	3950	1.11	0.035316285325
2	3950	1.11	0.024080883753
2	3950	1.11	0.02153692447
2	3950	1.11	0.018174283028
2	3950	1.11	0.017090339704
2	3950	1.11	0.015369196746
2	3950	1.11	0.011986403507
2	3950	1.11	0.031806991538
2	3950	1.11	0.030746038389
2	3950	1.11	0.023310940876
2	3991	1.12	0.019671776488
2	3991	1.12	0.014255735067
2	3991	1.12	0.014131958077
2	3991	1.12	0.017088670675
2	3991	1.12	0.025062116059
2	3991	1.12	0.01776666918
2	3991	1.12	0.017517340918
2	3991	1.12	0.013347940304
2	3991	1.12	0.013283127498
2	3991	1.12	0.010804725407
2	3991	1.12	0.039612117564
2	3991	1.12	0.039425512096
2	4034	1.13	0.01578900355
2	4034	1.13	0.013641476091
2	4034	1.13	0.014242503268
2	4034	1.13	0.011356863603
2	4034	1.13	0.015114472226
2	4034	1.13	0.013929294178
2	4034	1.13	0.011775412343
2	4075	1.14	0.025568856358
2	4075	1.14	0.022299750207
2	4075	1.14	0.010046687649
2	4075	1.14	0.021603170615
2	4075	1.14	0.056643245872
2	4075	1.14	0.051757718465
2	4075	1.14	0.051266609094
2	4075	1.14	0.045445598638
2	4075	1.14	0.036212846877
2	4075	1.14	0.048523587004
2	4120	1.15	0.018360227257
2	4120	1.15	0.017194609151
2	4120	1.15	0.016897632348
2	4120	1.15	0.027917472513
2	4120	1.15	0.021924896805
2	4120	1.15	0.022270341709
2	4120	1.15	0.016455702342
2	4120	1.15	0.014897648932
2	4120	1.15	0.011606839816
2	4120	1.15	0.026297461587
2	4120	1.15	0.018474934812
2	4120	1.15	0.012139213087
2	4120	1.15	0.032803161333
2	4120	1.15	0.02999464087
2	4120	1.15	0.029166885373
2	4120	1.15	0.02803271535
2	4120	1.15	0.025703868926
2	4120	1.15	0.012840832294
2	4120	1.15	0.010893963791
2	4120	1.15	0.044047096931
2	4120	1.15	0.04227293124
2	4120	1.15	0.041299159051
2	4165	1.16	0.018336975315
2	4165	1.16	0.014248498608
2	4165	1.16	0.027452178067
2	4165	1.16	0.010159996094
2	4165	1.16	0.019366980415
2	4165	1.16	0.016088552481
2	4165	1.16	0.013611115486
2	4204	1.17	0.048022261213
2	4204	1.17	0.041236244363
2	4204	1.17	0.040077040612
2	4204	1.17	0.031235269306
2	4204	1.17	0.02945901397
2	4204	1.17	0.029237658977
2	4204	1.17	0.021665670939
2	4204	1.17	0.010908509656
2	4204	1.17	0.028891357703
2	4204	1.17	0.024992720473
2	4204	1.17	0.018439360525
2	4204	1.17	0.027972743127
2	4204	1.17	0.020076873144
2	4204	1.17	0.057066655524
2	4204	1.17	0.05560563887
2	4204	1.17	0.042348702221
2	4204	1.17	0.02509078858
2	4204	1.17	0.018551419036
2	4204	1.17	0.018535995399
2	4204	1.17	0.017820740524
2	4204	1.17	0.01666310708
2	4204	1.17	0.0165056722
2	4204	1.17	0.014671410802
2	4204	1.17	0.012373066802
2	4204	1.17	0.0158051319
2	4251	1.18	0.022658102665
2	4251	1.18	0.018828220914
2	4251	1.18	0.037596373108
2	4251	1.18	0.035131754335
2	4251	1.18	0.032282552552
2	4251	1.18	0.020326720325
2	4251	1.18	0.012809772891
2	4251	1.18	0.017529319477
2	4251	1.18	0.013208506758
2	4251	1.18	0.011304458252
2	4251	1.18	0.019886531487
2	4251	1.18	0.011634414073
2	4284	1.19	0.013286287331
2	4284	1.19	0.037483654551
2	4284	1.19	0.035700350604
2	4284	1.19	0.035300495697
2	4284	1.19	0.032600805882
2	4284	1.19	0.027940148286
2	4284	1.19	0.024408442884
2	4284	1.19	0.020295738111
2	4335	1.2	0.025620711903
2	4335	1.2	0.023469563564
2	4335	1.2	0.019674270815
2	4335	1.2	0.010836557804
2	4335	1.2	0.025726637062
2	4335	1.2	0.022909901826
2	4335	1.2	0.021558690424
2	4335	1.2	0.020546824798
2	4335	1.2	0.01640612506
2	4335	1.2	0.028750056368
2	4335	1.2	0.036629718873
2	4335	1.2	0.025323070621
2	4335	1.2	0.087194028024
2	4335	1.2	0.081208972142
2	4335	1.2	0.076757787847
2	4335	1.2	0.075341543615
2	4335	1.2	0.072100678548
2	4335	1.2	0.065972836735
2	4335	1.2	0.043529466122
2	4374	1.21	0.028881198851
2	4374	1.21	0.014015527033
2	4374	1.21	0.013145478126
2	4374	1.21	0.036945388675
2	4374	1.21	0.033982507512
2	4374	1.21	0.029078786664
2	4374	1.21	0.027467104921
2	4374	1.21	0.020301088474
2	4374	1.21	0.019863832346
2	4374	1.21	0.013420958209
2	4374	1.21	0.033863729581
2	4374	1.21	0.029717164756
2	4374	1.21	0.014515456063
2	4374	1.21	0.073591224497
2	4411	1.22	0.016080910556
2	4411	1.22	0.019649164627
2	4411	1.22	0.025571940741
2	4411	1.22	0.025121392195
2	4411	1.22	0.022978032073
2	4411	1.22	0.029359706715
2	4411	1.22	0.018352206254
2	4411	1.22	0.029579721362
2	4411	1.22	0.028059320932
2	4411	1.22	0.022670202309
2	4411	1.22	0.016497531698
2	4411	1.22	0.019506007205
2	4411	1.22	0.04813609543
2	4442	1.23	0.017523843679
2	4442	1.23	0.016504756709
2	4442	1.23	0.015199958821
2	4442	1.23	0.013476467079
2	4442	1.23	0.017866746884
2	4442	1.23	0.012283171884
2	4442	1.23	0.010752898202
2	4442	1.23	0.013462240821
2	4442	1.23	0.014397928765
2	4442	1.23	0.031660759041
2	4442	1.23	0.031492309989
2	4442	1.23	0.030496308477
2	4442	1.23	0.063732905695
2	4442	1.23	0.0199393998
2	4442	1.23	0.090288354624
2	4477	1.24	0.067589643312
2	4477	1.24	0.063964114521
2	4477	1.24	0.057474254072
2	4477	1.24	0.012447642226
2	4477	1.24	0.012467019917
2	4477	1.24	0.012173029942
2	4477	1.24	0.017606054997
2	4477	1.24	0.011187728713
2	4477	1.24	0.010700040627
2	4477	1.24	0.039904772954
2	4477	1.24	0.036237796675
2	4477	1.24	0.032289376081
2	4477	1.24	0.019053560685
2	4477	1.24	0.016075121824
2	4477	1.24	0.011952007841
2	4494	1.25	0.047006703483
2	4494	1.25	0.045310407326
2	4494	1.25	0.045137858359
2	4494	1.25	0.042141231908
2	4494	1.25	0.039491139335
2	4494	1.25	0.030701049017
2	4494	1.25	0.026099090882
2	4494	1.25	0.018117719438
2	4494	1.25	0.016264891156
2	4494	1.25	0.01372688854
2	4494	1.25	0.013500345804
2	4494	1.25	0.017051729274
2	4494	1.25	0.082337011558
2	4494	1.25	0.065553570342
2	4494	1.25	0.052876054278
2	4494	1.25	0.045184210147
2	4494	1.25	0.01113585324
2	4531	1.26	0.026300450858
2	4531	1.26	0.099948837097
2	4531	1.26	0.086887359752
2	4531	1.26	0.08677517543
2	4531	1.26	0.086511855046
2	4531	1.26	0.073064241177
2	4531	1.26	0.069249911993
2	4531	1.26	0.065570651436
2	4531	1.26	0.062399593684
2	4531	1.26	0.060531091223
2	4531	1.26	0.050855902534
2	4531	1.26	0.043981334372
2	4531	1.26	0.027973388826
2	4531	1.26	0.010788600098
2	4531	1.26	0.010433844533
2	4531	1.26	0.024976911832
2	4531	1.26	0.023140908948
2	4531	1.26	0.020261750179
2	4531	1.26	0.027087791634
2	4531	1.26	0.019386571975
2	4566	1.27	0.016798634523
2	4566	1.27	0.016521136843
2	4566	1.27	0.014833381918
2	4566	1.27	0.01086084453
2	4566	1.27	0.017653012472
2	4566	1.27	0.010332505588
2	4566	1.27	0.013683303566
2	4566	1.27	0.015794661458
2	4566	1.27	0.014364064046
2	4566	1.27	0.012375687594
2	4566	1.27	0.01946408607
2	4566	1.27	0.016091844704
2	4566	1.27	0.014774295957
2	4597	1.28	0.018099225133
2	4597	1.28	0.012594430747
2	4597	1.28	0.014301603643
2	4597	1.28	0.011325691596
2	4597	1.28	0.015560872234
2	4597	1.28	0.011482656951
2	4597	1.28	0.010151679801
2	4597	1.28	0.012644530381
2	4597	1.28	0.014150505491
2	4597	1.28	0.012268488734
2	4597	1.28	0.01358672109
2	4597	1.28	0.012616846948
2	4630	1.29	0.012615088814
2	4630	1.29	0.0162342078
2	4630	1.29	0.015601879658
2	4630	1.29	0.010128795432
2	4630	1.29	0.019693402887
2	4630	1.29	0.010422023193
2	4630	1.29	0.012980497283
2	4630	1.29	0.012916298454
2	4630	1.29	0.017537646979
2	4630	1.29	0.016179151309
2	4671	1.3	0.014969966587
2	4671	1.3	0.016951497413
2	4671	1.3	0.01642611974
2	4671	1.3	0.013115460448
2	4671	1.3	0.014687260346
2	4671	1.3	0.010301116255
2	4671	1.3	0.011899529132
2	4671	1.3	0.014936765586
2	4671	1.3	0.014338193243
2	4671	1.3	0.014269091849
2	4671	1.3	0.012542937986
2	4714	1.31	0.012749021578
2	4714	1.31	0.016409244482
2	4714	1.31	0.010215225816
2	4714	1.31	0.011788282534
2	4714	1.31	0.013853433267
2	4714	1.31	0.012986701209
2	4714	1.31	0.015830459774
2	4747	1.32	0.026252820191
2	4747	1.32	0.02546892283
2	4747	1.32	0.024564504457
2	4747	1.32	0.023230226971
2	4747	1.32	0.018525391244
2	4747	1.32	0.015815250896
2	4747	1.32	0.011365652478
2	4747	1.32	0.029963317278
2	4747	1.32	0.024515732664
2	4747	1.32	0.011406826585
2	4747	1.32	0.010349233186
2	4747	1.32	0.027098437732
2	4747	1.32	0.020357349125
2	4747	1.32	0.015411837341
2	4747	1.32	0.013309228027
2	4747	1.32	0.010995459107
2	4747	1.32	0.011633441682
2	4747	1.32	0.013575273935
2	4747	1.32	0.015838915699
2	4747	1.32	0.013750894355
2	4747	1.32	0.01575271911
2	4747	1.32	0.01063023896
2	4747	1.32	0.017895290924
2	4747	1.32	0.018692574756
2	4792	1.33	0.018140215158
2	4792	1.33	0.017977215827
2	4792	1.33	0.010323236725
2	4792	1.33	0.017270626983
2	4792	1.33	0.01074498578
2	4792	1.33	0.013779234122
2	4792	1.33	0.019046048327
2	4792	1.33	0.018924487621
2	4792	1.33	0.018132872375
2	4792	1.33	0.016026617146
2	4792	1.33	0.012974248167
2	4825	1.34	0.018452529361
2	4825	1.34	0.016971139254
2	4825	1.34	0.017975096766
2	4825	1.34	0.019772592817
2	4872	1.35	0.022082896392
2	4872	1.35	0.021392889828
2	4872	1.35	0.021195649046
2	4872	1.35	0.01345255266
2	4872	1.35	0.010186219995
2	4872	1.35	0.025851798479
2	4872	1.35	0.020316359648
2	4872	1.35	0.013088267987
2	4872	1.35	0.012248913788
2	4872	1.35	0.029924138909
2	4872	1.35	0.025493170594
2	4872	1.35	0.014037333532
2	4872	1.35	0.025200340346
2	4872	1.35	0.024899724656
2	4872	1.35	0.021620736451
2	4909	1.36	0.010349303256
2	4909	1.36	0.016054302819
2	4909	1.36	0.012106694926
2	4909	1.36	0.015815155394
2	4909	1.36	0.023142764366
2	4909	1.36	0.016780230041
2	4909	1.36	0.032700184747
2	4909	1.36	0.022640360963
2	4909	1.36	0.020908463368
2	4909	1.36	0.019387948981
2	4909	1.36	0.01552122556
2	4909	1.36	0.013659815026
2	4909	1.36	0.018690737485
2	4909	1.36	0.01531854326
2	4909	1.36	0.014409766862
2	4909	1.36	0.016515066081
2	4909	1.36	0.011299852995
2	4909	1.36	0.011180590087
2	4909	1.36	0.017446872926
2	4909	1.36	0.030066827927
2	4909	1.36	0.025302264132
2	4909	1.36	0.014775103509
2	4909	1.36	0.037465927495
2	4909	1.36	0.022502264734
2	4909	1.36	0.021807238629
2	4909	1.36	0.015263435981
2	4909	1.36	0.011827551472
2	4952	1.37	0.018094937169
2	4952	1.37	0.017374918901
2	4952	1.37	0.010491208388
2	4952	1.37	0.015897568536
2	4952	1.37	0.014818413244
2	4952	1.37	0.012238226157
2	4952	1.37	0.017318300113
[...]
2	34552	9.47	0.046985454111001
2	34569	9.48	0.037054202662
2	34569	9.48	0.036533121143
2	34569	9.48	0.030320831145001
2	34569	9.48	0.09010903219
2	34569	9.48	0.076233211388001
2	34569	9.48	0.069204256120001
2	34569	9.48	0.067144058734
2	34569	9.48	0.060800155868
2	34569	9.48	0.071623088432
2	34569	9.48	0.061228375163001
2	34569	9.48	0.060583696098
2	34569	9.48	0.071522253783
2	34569	9.48	0.056389862808
2	34604	9.49	0.062111204597
2	34604	9.49	0.047386035180001
2	34604	9.49	0.046355343303
2	34604	9.49	0.045748700496
2	34604	9.49	0.03762748996
2	34604	9.49	0.036243686772
2	34604	9.49	0.030591316856
2	34604	9.49	0.025086645092001
2	34604	9.49	0.020019015297001
2	34604	9.49	0.164840333667
2	34604	9.49	0.163474331684
2	34604	9.49	0.162730446257
2	34604	9.49	0.143925653175
2	34604	9.49	0.078835938232
2	34604	9.49	0.077874422587
2	34604	9.49	0.062742203034
2	34604	9.49	0.062168889616
2	34604	9.49	0.061189599574
2	34643	9.5	0.077936523918
2	34643	9.5	0.06982520425
2	34643	9.5	0.069820747135001
2	34643	9.5	0.064875285438999
2	34643	9.5	0.047579339557
2	34643	9.5	0.025889086044
2	34682	9.51	0.078221156903
2	34682	9.51	0.070351564247
2	34682	9.51	0.063633070690001
2	34682	9.51	0.043045932439
2	34682	9.51	0.042543272666
2	34682	9.51	0.040435752463999
2	34682	9.51	0.040363066143
2	34682	9.51	0.027894958679999
2	34682	9.51	0.021266070896999
2	34682	9.51	0.18864456057
2	34682	9.51	0.184193400053
2	34682	9.51	0.179284717795
2	34682	9.51	0.172049314694
2	34682	9.51	0.166469548667
2	34682	9.51	0.155999713247
2	34682	9.51	0.144577507779
2	34682	9.51	0.143873103169
2	34682	9.51	0.140545020524
2	34682	9.51	0.131483233497
2	34682	9.51	0.130247618427
2	34682	9.51	0.116668917472
2	34682	9.51	0.114234308164
2	34682	9.51	0.111121772054
2	34682	9.51	0.103418430838
2	34721	9.52	0.094571743829
2	34721	9.52	0.087810480767999
2	34721	9.52	0.036066950011
2	34721	9.52	0.031722724729999
2	34721	9.52	0.029298636077
2	34721	9.52	0.02733700133
2	34721	9.52	0.022705536611999
2	34721	9.52	0.012782131502
2	34721	9.52	0.039202422696
2	34721	9.52	0.037290558207999
2	34721	9.52	0.026723058069999
2	34721	9.52	0.024108001126999
2	34721	9.52	0.016503591634001
2	34721	9.52	0.031250318021
2	34721	9.52	0.028165769400999
2	34721	9.52	0.019780996937
2	34721	9.52	0.011227233871999
2	34721	9.52	0.161905850037
2	34721	9.52	0.160006891053
2	34721	9.52	0.159363330282
2	34721	9.52	0.147849322732
2	34721	9.52	0.125719156359
2	34721	9.52	0.102725492983
2	34721	9.52	0.093299756171
2	34721	9.52	0.063535249749
2	34748	9.53	0.097101742689999
2	34748	9.53	0.089739117478999
2	34748	9.53	0.055572475681
2	34748	9.53	0.046609607198999
2	34748	9.53	0.036649163134999
2	34748	9.53	0.036364023186
2	34748	9.53	0.025872100275999
2	34748	9.53	0.022336624322
2	34748	9.53	0.020005009505999
2	34748	9.53	0.014440421868999
2	34748	9.53	0.012056542471999
2	34748	9.53	0.072395358515999
2	34748	9.53	0.105488398626
2	34748	9.53	0.099564892225999
2	34748	9.53	0.097181627954999
2	34748	9.53	0.054467016603999
2	34748	9.53	0.037445730528999
2	34748	9.53	0.034727571895999
2	34748	9.53	0.029709415171
2	34781	9.54	0.04857768778
2	34781	9.54	0.043189547818999
2	34781	9.54	0.023527256591999
2	34781	9.54	0.016070156493999
2	34781	9.54	0.023157265829999
2	34781	9.54	0.02099895752
2	34781	9.54	0.016249115334999
2	34781	9.54	0.078699387986999
2	34810	9.55	0.114933535984
2	34810	9.55	0.105269072132
2	34810	9.55	0.099741929332
2	34810	9.55	0.099625782000999
2	34810	9.55	0.098173338463999
2	34810	9.55	0.038698403096999
2	34810	9.55	0.026151001568
2	34810	9.55	0.019087786163999
2	34810	9.55	0.047798664591999
2	34810	9.55	0.041672593156999
2	34810	9.55	0.039565731463998
2	34810	9.55	0.023864348844999
2	34810	9.55	0.019571495115999
2	34843	9.56	0.090514027066
2	34843	9.56	0.048459302576001
2	34843	9.56	0.046144886498
2	34843	9.56	0.043572541715001
2	34843	9.56	0.042643792466
2	34843	9.56	0.028578429320001
2	34843	9.56	0.106763349198
2	34843	9.56	0.078205735460001
2	34843	9.56	0.076827457465001
2	34843	9.56	0.065285165149001
2	34843	9.56	0.061458314734001
2	34843	9.56	0.01120234409
2	34843	9.56	0.029550576819
2	34843	9.56	0.021591485990001
2	34843	9.56	0.15131068613
2	34843	9.56	0.148967678793
2	34843	9.56	0.034426918432001
2	34843	9.56	0.019989017293002
2	34843	9.56	0.014357756589
2	34843	9.56	0.019696397533
2	34843	9.56	0.035538815900001
2	34843	9.56	0.102496750382
2	34880	9.57	0.037339785224001
2	34880	9.57	0.036265788163
2	34880	9.57	0.057654562174001
2	34880	9.57	0.057468185365
2	34880	9.57	0.0494646833
2	34880	9.57	0.016377499980001
2	34880	9.57	0.011903269642
2	34880	9.57	0.010198671869
2	34880	9.57	0.149421847339
2	34880	9.57	0.143569082453
2	34880	9.57	0.139216697694
2	34880	9.57	0.138961345431
2	34880	9.57	0.137723565961
2	34880	9.57	0.018405794756001
2	34880	9.57	0.026575504373
2	34880	9.57	0.025602067909
2	34919	9.58	0.028865758874
2	34919	9.58	0.018787967378
2	34919	9.58	0.049306118452
2	34919	9.58	0.019575505505001
2	34919	9.58	0.011230467169
2	34919	9.58	0.018188581161001
2	34952	9.59	0.019060004153999
2	34952	9.59	0.018531591924001
2	34952	9.59	0.017701246419
2	34952	9.59	0.01371141219
2	34952	9.59	0.014866033822001
2	34952	9.59	0.053529230116
2	34952	9.59	0.048679549842999
2	34952	9.59	0.04322372997
2	34952	9.59	0.029391137715001
2	34952	9.59	0.010868727017
2	34952	9.59	0.029739041136001
2	34952	9.59	0.025921120634001
2	34952	9.59	0.023265208241
2	34952	9.59	0.018795937171999
2	34952	9.59	0.140872861594
2	34952	9.59	0.126047324937
2	34952	9.59	0.100900209879
2	34952	9.59	0.089426796444
2	34952	9.59	0.021761304770999
2	34952	9.59	0.042455831686
2	34952	9.59	0.125192956385
2	34987	9.6	0.018212901226001
2	34987	9.6	0.024356681825999
2	34987	9.6	0.021196833643
2	34987	9.6	0.016347389906
2	34987	9.6	0.019259532694999
2	34987	9.6	0.017583269117999
2	34987	9.6	0.097719159363999
2	34987	9.6	0.096670483657
2	34987	9.6	0.092480314232001
2	34987	9.6	0.081812057841999
2	34987	9.6	0.066933271489999
2	34987	9.6	0.049732806901
2	34987	9.6	0.025240512670999
2	34987	9.6	0.022180795895
2	34987	9.6	0.018020280169999
2	34987	9.6	0.024161822465
2	34987	9.6	0.016715810051
2	34987	9.6	0.048034893378
2	34987	9.6	0.046919304303
2	34987	9.6	0.046905144895
2	34987	9.6	0.04883746834
2	34987	9.6	0.032220969561999
2	35020	9.61	0.123125723357
2	35020	9.61	0.085770347077
2	35020	9.61	0.070835922774
2	35020	9.61	0.046227019987999
2	35020	9.61	0.011719133084
2	35020	9.61	0.018495181151
2	35020	9.61	0.016547456129
2	35020	9.61	0.010870417513999
2	35020	9.61	0.013955891603
2	35020	9.61	0.053539449533
2	35051	9.62	0.050340780879999
2	35051	9.62	0.048795647794
2	35051	9.62	0.032694023391999
2	35051	9.62	0.027959911865999
2	35051	9.62	0.016771528143
2	35051	9.62	0.014800737869999
2	35051	9.62	0.036629428468999
2	35051	9.62	0.035013185523999
2	35051	9.62	0.032397025929999
2	35051	9.62	0.025630766656999
2	35051	9.62	0.012740864852999
2	35051	9.62	0.022576404640999
2	35051	9.62	0.014983985039999
2	35051	9.62	0.015539444925999
2	35051	9.62	0.013707481373999
2	35051	9.62	0.029038203554
2	35051	9.62	0.026226990738
2	35051	9.62	0.018912670656999
2	35051	9.62	0.016962225400999
2	35051	9.62	0.017172630586
2	35051	9.62	0.015466304966999
2	35051	9.62	0.051783112413
2	35051	9.62	0.044548638844999
2	35051	9.62	0.034981759958999
2	35051	9.62	0.022767914353999
2	35051	9.62	0.022277251617
2	35051	9.62	0.012767987405999
2	35090	9.63	0.019014197664999
2	35090	9.63	0.016368007207999
2	35090	9.63	0.010588765939
2	35090	9.63	0.013131458747999
2	35090	9.63	0.015821268367999
2	35090	9.63	0.010931726827
2	35090	9.63	0.015779908121999
2	35090	9.63	0.012191657197999
2	35090	9.63	0.014012791872998
2	35115	9.64	0.016262329826001
2	35115	9.64	0.013585069394001
2	35115	9.64	0.016804476519001
2	35115	9.64	0.016120660646001
2	35115	9.64	0.012589005962001
2	35115	9.64	0.017396739518
2	35115	9.64	0.011005836961001
2	35115	9.64	0.024795741512001
2	35115	9.64	0.017305300969001
2	35115	9.64	0.015208654243001
2	35115	9.64	0.011460931566001
2	35115	9.64	0.019534663389001
2	35115	9.64	0.012965161376
2	35115	9.64	0.010223144321001
2	35115	9.64	0.016819659588
2	35152	9.65	0.018238720982001
2	35152	9.65	0.017688450995001
2	35152	9.65	0.011987863359
2	35152	9.65	0.010708484218
2	35152	9.65	0.019782276760001
2	35185	9.66	0.018642713137
2	35185	9.66	0.018280740068001
2	35185	9.66	0.016635065957001
2	35185	9.66	0.013447654323
2	35185	9.66	0.016517328521001
2	35185	9.66	0.015868603459001
2	35185	9.66	0.015119156035
2	35185	9.66	0.013852050736
2	35185	9.66	0.028097922588
2	35185	9.66	0.011190370426
2	35185	9.66	0.022191483633
2	35185	9.66	0.017356004137
2	35185	9.66	0.012600981945001
2	35185	9.66	0.015680144468
2	35185	9.66	0.018123401757
2	35214	9.67	0.019854810663
2	35214	9.67	0.018942096851999
2	35214	9.67	0.016043094099
2	35214	9.67	0.012211377642
2	35214	9.67	0.012009548287001
2	35214	9.67	0.015146533593001
2	35214	9.67	0.014269025185
2	35214	9.67	0.010541138021001
2	35214	9.67	0.010238913225001
2	35249	9.68	0.01745780163
2	35249	9.68	0.019808003911001
2	35249	9.68	0.019669461815999
2	35249	9.68	0.01626217253
2	35249	9.68	0.013567389157
2	35249	9.68	0.013648120953
2	35249	9.68	0.019149903571
2	35249	9.68	0.017693760419
2	35249	9.68	0.024951242777
2	35249	9.68	0.022600139935999
2	35282	9.69	0.015647791452
2	35282	9.69	0.016488450772
2	35282	9.69	0.018734518302999
2	35282	9.69	0.013998659044999
2	35319	9.7	0.015339319640999
2	35319	9.7	0.010027517476999
2	35319	9.7	0.016592510809
2	35319	9.7	0.012846266983999
2	35319	9.7	0.011605509364999
2	35319	9.7	0.026986234509
2	35319	9.7	0.023965070446
2	35319	9.7	0.017835941264
2	35319	9.7	0.029448682537
2	35319	9.7	0.01071381857
2	35319	9.7	0.028175831507999
2	35319	9.7	0.024540498197
2	35319	9.7	0.016183774658
2	35319	9.7	0.019289880742999
2	35344	9.71	0.041910179349999
2	35344	9.71	0.036410092480999
2	35344	9.71	0.033724167479999
2	35344	9.71	0.01864632275
2	35344	9.71	0.011796931807
2	35383	9.72	0.028900387756002
2	35383	9.72	0.028326468137001
2	35383	9.72	0.028226170449001
2	35383	9.72	0.015606639273001
2	35383	9.72	0.029596905382
2	35383	9.72	0.029195360920001
2	35383	9.72	0.012064128503001
2	35383	9.72	0.011554413180001
2	35383	9.72	0.029227781534001
2	35383	9.72	0.025695946649002
2	35383	9.72	0.043437981229001
2	35383	9.72	0.029381776298001
2	35383	9.72	0.021667553676
2	35383	9.72	0.019450001565001
2	35383	9.72	0.032591817788001
2	35383	9.72	0.031733057610001
2	35383	9.72	0.029214836796001
2	35383	9.72	0.023710648308001
2	35383	9.72	0.019905492044002
2	35383	9.72	0.013848638407001
2	35383	9.72	0.013766872437001
2	35412	9.73	0.016261139164001
2	35412	9.73	0.019539688339
2	35412	9.73	0.010551099431
2	35412	9.73	0.012038974191
2	35412	9.73	0.012548541097001
2	35412	9.73	0.011847725453
2	35412	9.73	0.011377798323
2	35412	9.73	0.017236886208
2	35412	9.73	0.015076005319001
2	35412	9.73	0.014498064543
2	35412	9.73	0.012427053274001
2	35412	9.73	0.010543232742
2	35412	9.73	0.017148750253
2	35412	9.73	0.01269671969
2	35437	9.74	0.013399299871001
2	35437	9.74	0.010829417119
2	35437	9.74	0.016317429416
2	35437	9.74	0.010337216794001
2	35437	9.74	0.019890076671
2	35437	9.74	0.012115946404
2	35437	9.74	0.019045205658001
2	35437	9.74	0.013588090366001
2	35437	9.74	0.016017796936
2	35460	9.75	0.018269339630001
2	35460	9.75	0.01718122832
2	35460	9.75	0.013119318139999
2	35460	9.75	0.015459064887001
2	35460	9.75	0.016392021171001
2	35460	9.75	0.015622146438
2	35487	9.76	0.019576008450001
2	35487	9.76	0.015228214977
2	35487	9.76	0.022320754922999
2	35487	9.76	0.019124710608001
2	35487	9.76	0.018685195448001
2	35526	9.77	0.010465960367
2	35526	9.77	0.017290255986
2	35526	9.77	0.012035611881
2	35526	9.77	0.029921316238999
2	35526	9.77	0.022793520443999
2	35526	9.77	0.019123873799
2	35526	9.77	0.011576205483999
2	35526	9.77	0.016621813445999
2	35549	9.78	0.016200952752
2	35549	9.78	0.013553457992
2	35549	9.78	0.015567299357999
2	35549	9.78	0.027453110771999
2	35549	9.78	0.019158050059
2	35549	9.78	0.022822527898999
2	35590	9.79	0.021848981987999
2	35590	9.79	0.029296720428999
2	35590	9.79	0.027298575789999
2	35590	9.79	0.025264326846999
2	35590	9.79	0.015236107887999
2	35590	9.79	0.012928108381999
2	35590	9.79	0.028790714787
2	35625	9.8	0.019094240112999
2	35625	9.8	0.012615798404999
2	35625	9.8	0.039440738575999
2	35625	9.8	0.036946944757998
2	35625	9.8	0.034709974420998
2	35625	9.8	0.032976340232999
2	35625	9.8	0.028121438294999
2	35625	9.8	0.011999827011
2	35625	9.8	0.022370400406999
2	35625	9.8	0.035860890295
2	35625	9.8	0.014549209906999
2	35644	9.81	0.016603124714001
2	35644	9.81	0.014770302100001
2	35644	9.81	0.013974419383
2	35644	9.81	0.027120887400001
2	35644	9.81	0.024789528566
2	35644	9.81	0.014409391274
2	35644	9.81	0.031748089156
2	35644	9.81	0.029912902756001
2	35644	9.81	0.022490576272
2	35644	9.81	0.011562548239
2	35644	9.81	0.015725605943
2	35644	9.81	0.010449764442001
2	35644	9.81	0.034380874062
2	35677	9.82	0.01837139541
2	35677	9.82	0.036696913339
2	35677	9.82	0.03155052664
2	35677	9.82	0.031469182923001
2	35677	9.82	0.030221578114
2	35677	9.82	0.020702576904
2	35677	9.82	0.027036847103
2	35677	9.82	0.015904403261001
2	35677	9.82	0.015372957919
2	35677	9.82	0.030365821471001
2	35677	9.82	0.020938904971
2	35677	9.82	0.017718237738
2	35677	9.82	0.035676857749001
2	35710	9.83	0.019055476575
2	35710	9.83	0.013107862138
2	35710	9.83	0.019848467493
2	35710	9.83	0.017012067676001
2	35710	9.83	0.016293210086001
2	35710	9.83	0.019935542848
2	35710	9.83	0.012055462400001
2	35710	9.83	0.014156531603
2	35757	9.84	0.016352661917001
2	35757	9.84	0.012866145258
2	35757	9.84	0.017718895307
2	35757	9.84	0.015213062555
2	35757	9.84	0.011232497521
2	35757	9.84	0.012511663925
2	35757	9.84	0.019380924163
2	35757	9.84	0.018954281435001
2	35757	9.84	0.018732348661
2	35757	9.84	0.015288663791001
2	35757	9.84	0.023002820585001
2	35757	9.84	0.052268714169999
2	35794	9.85	0.013022475676999
2	35794	9.85	0.017975473732999
2	35794	9.85	0.014791264299999
2	35794	9.85	0.013213865597001
2	35794	9.85	0.010816693662999
2	35794	9.85	0.01515171985
2	35794	9.85	0.015816039797
2	35794	9.85	0.014806991423999
2	35794	9.85	0.011595435664999
2	35794	9.85	0.019659847671999
2	35794	9.85	0.018044367716
2	35794	9.85	0.019210755065
2	35794	9.85	0.017774625386
2	35794	9.85	0.010279088192
2	35835	9.86	0.018668342945
2	35835	9.86	0.014009212489
2	35835	9.86	0.010549790899999
2	35835	9.86	0.013025935716
2	35835	9.86	0.011679167066999
2	35835	9.86	0.010749236046999
2	35835	9.86	0.014549848715999
2	35835	9.86	0.015856929027999
2	35835	9.86	0.066693989454
2	35835	9.86	0.062675720395999
2	35835	9.86	0.044317940206
2	35835	9.86	0.043023216805
2	35835	9.86	0.038611544176
2	35835	9.86	0.028468796953
2	35864	9.87	0.018481588803999
2	35864	9.87	0.018467884775999
2	35864	9.87	0.017634777787999
2	35864	9.87	0.016424872691999
2	35864	9.87	0.013982845058999
2	35864	9.87	0.012800672186
2	35864	9.87	0.017547468162
2	35864	9.87	0.015418818773
2	35864	9.87	0.010366674351999
2	35864	9.87	0.028365247810999
2	35864	9.87	0.02202736602
2	35864	9.87	0.020990800158
2	35864	9.87	0.015238175622999
2	35864	9.87	0.018407988191999
2	35864	9.87	0.02196473257
2	35889	9.88	0.017554592993999
2	35889	9.88	0.048248670607999
2	35889	9.88	0.045392085290999
2	35889	9.88	0.040805510658998
2	35889	9.88	0.026869691930999
2	35889	9.88	0.01221525041
2	35889	9.88	0.017066999962999
2	35889	9.88	0.028084216371999
2	35889	9.88	0.030800247519998
2	35889	9.88	0.025650568308999
2	35928	9.89	0.017104040251001
2	35928	9.89	0.016824355173
2	35928	9.89	0.033738284831001
2	35928	9.89	0.026507790983
2	35928	9.89	0.020119970870001
2	35928	9.89	0.012793671897001
2	35928	9.89	0.020630915351001
2	35928	9.89	0.021989855579001
2	35928	9.89	0.012726580967001
2	35928	9.89	0.023926283025
2	35928	9.89	0.010316506321001
2	35928	9.89	0.010187693057
2	35928	9.89	0.013145347806001
2	35928	9.89	0.023178864751001
2	35965	9.9	0.017372077611
2	35965	9.9	0.016298297161001
2	35965	9.9	0.010059668565001
2	35965	9.9	0.013724088505001
2	35965	9.9	0.019958922931
2	35965	9.9	0.017797687770001
2	35965	9.9	0.015311390978001
2	35965	9.9	0.010447547255001
2	35965	9.9	0.019066489517
2	35965	9.9	0.018690941562001
2	35965	9.9	0.015233274397001
2	35965	9.9	0.018347487753001
2	36004	9.91	0.019743158185001
2	36004	9.91	0.012506281875
2	36004	9.91	0.010741661457001
2	36004	9.91	0.01342752895
2	36004	9.91	0.013846588675001
2	36004	9.91	0.012344892132001
2	36004	9.91	0.016811255882001
2	36004	9.91	0.014771564232001
2	36004	9.91	0.013776926193
2	36004	9.91	0.020635501371
2	36004	9.91	0.012969065099
2	36031	9.92	0.017595102970001
2	36031	9.92	0.01733826061
2	36031	9.92	0.017049787836999
2	36031	9.92	0.016807003304001
2	36066	9.93	0.032390397782001
2	36066	9.93	0.032089334027001
2	36066	9.93	0.031151633954
2	36066	9.93	0.028611036772
2	36066	9.93	0.027307785304
2	36066	9.93	0.023011577825001
2	36066	9.93	0.01978691583
2	36066	9.93	0.027598495559999
2	36066	9.93	0.014618106656
2	36066	9.93	0.014313771175001
2	36066	9.93	0.045489040528
2	36066	9.93	0.027566707305001
2	36066	9.93	0.014138793858001
2	36066	9.93	0.013069313459999
2	36066	9.93	0.020126894120001
2	36066	9.93	0.013968842142999
2	36066	9.93	0.026466147636
2	36066	9.93	0.024840419973
2	36066	9.93	0.021491583722
2	36097	9.94	0.019325958912999
2	36097	9.94	0.013879961680999
2	36097	9.94	0.010914000636999
2	36097	9.94	0.018620821228
2	36097	9.94	0.031387029784
2	36097	9.94	0.027611760627
2	36097	9.94	0.019360089787
2	36097	9.94	0.015473931822999
2	36097	9.94	0.010297745441999
2	36140	9.95	0.024750341163999
2	36140	9.95	0.023902637428
2	36140	9.95	0.015545055927999
2	36140	9.95	0.01282992184
2	36140	9.95	0.011870619781
2	36140	9.95	0.011554445058
2	36140	9.95	0.037269758946
2	36140	9.95	0.026720525815
2	36140	9.95	0.024072043576
2	36140	9.95	0.014022981518
2	36140	9.95	0.018100115518999
2	36183	9.96	0.016614767300998
2	36183	9.96	0.015539414695999
2	36183	9.96	0.014978264042
2	36183	9.96	0.025993286055
2	36183	9.96	0.013984079562999
2	36183	9.96	0.011428100866999
2	36183	9.96	0.018238260461999
2	36183	9.96	0.017670707605999
2	36183	9.96	0.015171722547999
2	36183	9.96	0.011559241131
2	36183	9.96	0.019002316244999
2	36183	9.96	0.013142590688
2	36183	9.96	0.035445183797
2	36183	9.96	0.020912711388
2	36183	9.96	0.016712856483998
2	36183	9.96	0.011037468222
2	36222	9.97	0.037791010844002
2	36222	9.97	0.024550933861001
2	36222	9.97	0.020840478386001
2	36222	9.97	0.012686195079
2	36222	9.97	0.011877911562001
2	36222	9.97	0.034899893583001
2	36222	9.97	0.028987891593001
2	36222	9.97	0.016491314443002
2	36222	9.97	0.015048327594
2	36222	9.97	0.014226137893001
2	36222	9.97	0.019347656381001
2	36222	9.97	0.012325097879001
2	36222	9.97	0.016771980096001
2	36222	9.97	0.012550044100001
2	36265	9.98	0.025549583784001
2	36265	9.98	0.020818270104
2	36265	9.98	0.019689347599
2	36265	9.98	0.018021345612
2	36265	9.98	0.019953363657001
2	36265	9.98	0.017872243514001
2	36265	9.98	0.010461327609001
2	36265	9.98	0.019467494385001
2	36265	9.98	0.018969050280001
2	36265	9.98	0.018436695044
2	36265	9.98	0.011394724346001
2	36265	9.98	0.021522179639001
2	36265	9.98	0.017863839725001
2	36265	9.98	0.016981065288
2	36265	9.98	0.010250753163001
2	36265	9.98	0.020666774566001
2	36265	9.98	0.015841652031
2	36298	9.99	0.013333504419
2	36298	9.99	0.011718167185
2	36298	9.99	0.018325945882001
2	36298	9.99	0.011839188549001
2	36298	9.99	0.010322451486001
2	36298	9.99	0.011687547295001
2	36298	9.99	0.013061006199001
2	36298	9.99	0.036011113142001
2	36298	9.99	0.035773775634
2	36298	9.99	0.032722875272
2	36298	9.99	0.026022800717
2	36333	10	0.025679775381001
2	36333	10	0.018215251163999
2	36333	10	0.014750195471001
2	36333	10	0.014060155628
2	36333	10	0.026602197187
2	36333	10	0.023535575981001
2	36333	10	0.020431711633
2	36333	10	0.015005365362001
2	36333	10	0.014428462901
2	36333	10	0.010293263494001
2	36333	10	0.016284205613999
2	36333	10	0.01795144153
2	36333	10	0.013334780811
2	36333	10	0.029286264785
2	36333	10	0.028270035052
2	36333	10	0.027427289199
2	36333	10	0.027387655503
2	36333	10	0.024513460853001
2	36333	10	0.011411144536
2	36333	10	0.010004416243

