file 62561576 1580122944                                        
version 2
run General-0-20200127-12:02:16-18084
attr configname General
attr datetime 20200127-12:02:16
attr experiment General
attr inifile omnetpp.ini
attr iterationvars ""
attr iterationvarsf ""
attr measurement ""
attr network CellularNetwork
attr processid 18084
attr repetition 0
attr replication #0
attr resultdir results
attr runnumber 0
attr seedset 0
param **.nUsers 10
param **.antenna.timeslot 1ms
param **.antenna.lambda 1.3ms
param **.antenna.successProbGroup1 0.2
param **.antenna.successProbGroup2 0.5
param **.antenna.successProbGroup3 0.9
param **.antenna.isBinomial true

vector 0 CellularNetwork.antenna responseTime:vector ETV
attr source responseTime
vector 1 CellularNetwork.antenna throughput:vector ETV
attr source throughput
vector 2 CellularNetwork.antenna NumServedUser:vector ETV
attr source NumServedUser
vector 3 CellularNetwork.antenna tptUser-0:vector ETV
vector 4 CellularNetwork.antenna tptUser-1:vector ETV
vector 5 CellularNetwork.antenna tptUser-2:vector ETV
vector 6 CellularNetwork.antenna tptUser-3:vector ETV
vector 7 CellularNetwork.antenna tptUser-4:vector ETV
vector 8 CellularNetwork.antenna tptUser-5:vector ETV
vector 9 CellularNetwork.antenna tptUser-6:vector ETV
vector 10 CellularNetwork.antenna tptUser-7:vector ETV
vector 11 CellularNetwork.antenna tptUser-8:vector ETV
vector 12 CellularNetwork.antenna tptUser-9:vector ETV
0	1418 1045919 25 79454 0.001 4.243 32768 0.001 0.131743882595 157.1018657517 5.5376251634326
0	1047337 1111656 79454 159511 4.243 8.54 32768 0.0010000781550001 0.309017765958 230.83707991111 27.379609884809
0	2158993 1148658 159511 239193 8.54 12.802 32768 0.0010000526699994 0.164037826619 176.27897057549 7.8685730893067
0	3307651 1160606 239210 319255 12.803 17.1 32768 0.0010000469250002 0.184733770102 189.99682145999 9.1721639423266
0	4468257 1163589 319255 399117 17.1 21.386 32768 0.0010000684520008 0.279287394947 247.6908073776 22.02850714952
0	5631846 1164669 399117 479012 21.386 25.668 32768 0.0010001000390005 0.153832929027 165.27941279482 6.0777996404433
0	6796515 1165731 479012 558772 25.668 29.942 32768 0.0010000070439986 0.106551687446 138.57799317129 3.4916426243921
1	7962246 666789 25 611901 0.001 32.768 32768 0 1914 9553083 3553802689
2	8629035 602998 25 611901 0.001 32.768 32768 0 9 154604 799916
3	9232033 620320 25 611901 0.001 32.768 32768 0 591 969779 93749911
4	9852353 619060 25 611901 0.001 32.768 32768 0 580 950014 105493444
5	10471413 616105 25 611901 0.001 32.768 32768 0 644 951506 160022296
6	11087518 618295 25 611901 0.001 32.768 32768 0 1247 947909 156275877
7	11705813 619728 25 611901 0.001 32.768 32768 0 956 948120 107224276
8	12325541 620105 25 611901 0.001 32.768 32768 0 1504 954566 101241852
9	12945646 620613 25 611901 0.001 32.768 32768 0 710 962031 88367799
10	13566259 653527 25 611901 0.001 32.768 32768 0 869 958626 85542504
11	14219786 653580 25 611901 0.001 32.768 32768 0 480 959309 80671993
12	14873366 653599 25 611901 0.001 32.768 32768 0 489 951223 79120349
0	15526965 1165628 558772 638337 29.942 34.194 32768 0.0010000842029996 0.251480206748 203.84749423073 15.923863109954
0	16692593 1164638 638353 717892 34.195 38.452 32768 0.0010000482590016 0.225228897624 282.58774945487 24.437736964602
0	17857231 1166972 717892 797987 38.452 42.749 32768 0.001000017797999 0.186658618211 172.36312344218 8.85582197503
0	19024203 1166996 797987 877279 42.749 46.975 32768 0.0010000095429987 0.225663606484 172.84781061148 10.340755242461
0	20191199 1166250 877279 956614 46.975 51.217 32768 0.0010000654670037 0.264554422223 217.31718410799 19.593455699133
0	21357449 1181866 956614 1035986 51.217 55.454 32768 0.0010000106049972 0.182685488686 182.77365010068 8.6583889173707
0	22539315 1199215 1035986 1115525 55.454 59.705 32768 0.0010000041759994 0.218535132803 199.06513881159 12.780220859594
0	23738530 1198492 1115525 1195486 59.705 63.987 32768 0.0010000061690008 0.29516778309 271.78310451918 32.880869856626
1	24937022 694843 611917 1224454 32.769 65.536 32768 0 1746 9580188 3571103592
2	25631865 630922 611917 1224454 32.769 65.536 32768 0 9 154971 802711
3	26262787 648118 611917 1224454 32.769 65.536 32768 0 441 951316 88974918
4	26910905 647067 611917 1224454 32.769 65.536 32768 0 758 957194 106292492
5	27557972 644249 611917 1224454 32.769 65.536 32768 0 957 965407 163603077
6	28202221 646385 611917 1224454 32.769 65.536 32768 0 1284 952691 152598407
7	28848606 647672 611917 1224454 32.769 65.536 32768 0 1408 962619 116178455
8	29496278 648105 611917 1224454 32.769 65.536 32768 0 1244 954463 96917565
9	30144383 648429 611917 1224454 32.769 65.536 32768 0 698 960975 89562923
10	30792812 681482 611917 1224454 32.769 65.536 32768 0 959 963805 87053437
11	31474294 681587 611917 1224454 32.769 65.536 32768 0 852 960611 81798457
12	32155881 681540 611917 1224454 32.769 65.536 32768 0 772 951107 79277705
0	32837421 1201170 1195486 1274825 63.987 68.23 32768 0.0010000570549948 0.134224248546 157.33451956504 5.8262638373706
0	34038591 1201236 1274825 1354748 68.23 72.509 32768 0.001000047307997 0.110637255944 144.41913642534 3.8239060824968
0	35239827 1200942 1354748 1434472 72.509 76.781 32768 0.0010000176790044 0.18648025702501 171.59364878758 7.9277523169364
0	36440769 1201053 1434472 1514072 76.781 81.04 32768 0.0010000771830079 0.12162787964201 160.38137684405 5.5654722398653
0	37641822 1200804 1514072 1593708 81.04 85.302 32768 0.0010000301410003 0.122263371415 185.18475361657 7.6591706991828
0	38842626 1201552 1593708 1673620 85.302 89.584 32768 0.0010000063929994 0.090232682675008 137.8188050408 3.37631798989
0	40044178 1200653 1673620 1752911 89.584 93.819 32768 0.0010000786809883 0.154636976676 201.08813557781 10.114355567292
0	41244831 1200121 1752911 1832471 93.819 98.072 32768 0.0010000246879969 0.240972030347 204.8256497687 12.936911091588
1	42444952 715608 1224473 1836739 65.537 98.304 32768 0 1897 9571442 3559915390
2	43160560 651689 1224473 1836739 65.537 98.304 32768 0 9 155039 803151
3	43812249 668942 1224473 1836739 65.537 98.304 32768 0 457 952082 89866562
4	44481191 667786 1224473 1836739 65.537 98.304 32768 0 832 957787 107767901
5	45148977 664853 1224473 1836739 65.537 98.304 32768 0 888 954679 160175185
6	45813830 667359 1224473 1836739 65.537 98.304 32768 0 1229 954586 148859184
7	46481189 668401 1224473 1836739 65.537 98.304 32768 0 1192 954993 114387365
8	47149590 668910 1224473 1836739 65.537 98.304 32768 0 1157 957110 97582556
9	47818500 669266 1224473 1836739 65.537 98.304 32768 0 819 965440 89691514
10	48487766 702107 1224473 1836739 65.537 98.304 32768 0 1273 955341 90208829
11	49189873 702244 1224473 1836739 65.537 98.304 32768 0 1024 958773 83086221
12	49892117 702375 1224473 1836739 65.537 98.304 32768 0 381 960651 80355355
0	50594492 1218658 1832471 1912310 98.072 102.352 32768 0.0010000178039888 0.200945724981 186.3892770257 10.422382062595
0	51813150 1233405 1912310 1991594 102.352 106.581 32768 0.0010000549650044 0.16295829656501 187.25025567331 9.8885829609169
0	53046555 1234329 1991594 2071420 106.581 110.859 32768 0.0010000176589955 0.130594862319 159.198175248 5.7611343233578
0	54280884 1233192 2071420 2151261 110.859 115.138 32768 0.0010000080829968 0.202220559542 195.76650603905 11.045993259243
0	55514076 1233132 2151261 2230647 115.138 119.375 32768 0.0010000785389934 0.24924026350099 232.65359851402 19.566618787734
0	56747208 178382 2230647 2242248 119.375 120 4732 0.0010003426639997 0.052428138683993 14.545003054584 0.16962575161109
1	56925590 493744 1836757 2242248 98.305 120 21696 0 1645 6344995 2362930927
2	57419334 451490 1836757 2242248 98.305 120 21696 0 9 102772 533574
3	57870824 462924 1836757 2242248 98.305 120 21696 0 466 631498 59238250
4	58333748 462178 1836757 2242248 98.305 120 21696 0 648 629266 70038384
5	58795926 460316 1836757 2242248 98.305 120 21696 0 856 644629 110901093
6	59256242 461931 1836757 2242248 98.305 120 21696 0 1033 629807 94160437
7	59718173 462731 1836757 2242248 98.305 120 21696 0 1333 650721 83369463
8	60180904 462940 1836757 2242248 98.305 120 21696 0 1027 634958 64744440
9	60643844 462953 1836757 2242248 98.305 120 21696 0 848 625384 57587410
10	61106797 484741 1836757 2242248 98.305 120 21696 0 1039 629238 57281828
11	61591538 485048 1836757 2242248 98.305 120 21696 0 830 638185 55341045
12	62076586 484988 1836757 2242248 98.305 120 21696 0 568 631309 52889443

