file 58696710 1580457509                                        
version 2
run General-0-20200131-08:55:34-7120
attr configname General
attr datetime 20200131-08:55:34
attr experiment General
attr inifile omnetpp.ini
attr iterationvars ""
attr iterationvarsf ""
attr measurement ""
attr network CellularNetwork
attr processid 7120
attr repetition 0
attr replication #0
attr resultdir results
attr runnumber 0
attr seedset 0
param **.nUsers 10
param **.antenna.timeslot 1ms
param **.antenna.lambda 1.3ms
param **.antenna.successProbGroup1 0.2
param **.antenna.successProbGroup2 0.5
param **.antenna.successProbGroup3 0.9
param **.antenna.isBinomial true

vector 0 CellularNetwork.antenna responseTime-1:vector ETV
vector 1 CellularNetwork.antenna responseTime-2:vector ETV
vector 2 CellularNetwork.antenna responseTime-3:vector ETV
vector 3 CellularNetwork.antenna responseTime-4:vector ETV
vector 4 CellularNetwork.antenna responseTime-5:vector ETV
vector 5 CellularNetwork.antenna responseTime-6:vector ETV
vector 6 CellularNetwork.antenna responseTime-7:vector ETV
vector 7 CellularNetwork.antenna responseTime-8:vector ETV
vector 8 CellularNetwork.antenna tptUser-0:vector ETV
vector 9 CellularNetwork.antenna tptUser-1:vector ETV
vector 10 CellularNetwork.antenna tptUser-2:vector ETV
vector 11 CellularNetwork.antenna tptUser-3:vector ETV
vector 12 CellularNetwork.antenna tptUser-4:vector ETV
vector 13 CellularNetwork.antenna tptUser-5:vector ETV
vector 14 CellularNetwork.antenna tptUser-6:vector ETV
vector 15 CellularNetwork.antenna tptUser-7:vector ETV
vector 16 CellularNetwork.antenna tptUser-8:vector ETV
vector 17 CellularNetwork.antenna tptUser-9:vector ETV
vector 18 CellularNetwork.antenna responseTime-0:vector ETV
vector 19 CellularNetwork.antenna responseTime-9:vector ETV
0	1773 708658 25 553980 0.001 29.685 22686 0.001 0.09571423409 105.11253666991 1.6145308264846
1	710431 704666 25 553999 0.001 29.686 22559 0.001 0.309017765958 760.93528946937 75.064543576637
2	1415097 705446 25 553576 0.001 29.662 22582 0.001 0.122360905222 116.00634905349 3.235605934909
3	2120543 710384 25 553999 0.001 29.686 22744 0.001 0.066510862836 57.891380301775 0.58949563502402
4	2830927 714946 25 553980 0.001 29.685 22885 0.001 0.060057042006 49.930575402276 0.35748927744611
5	3545873 715099 25 553999 0.001 29.686 22885 0.001 0.02942922689 40.813575266963 0.12302520012085
6	4260972 714129 25 553962 0.001 29.684 22857 0.001 0.026547200699 38.148054547173 0.091783314704015
7	4975101 710868 25 553999 0.001 29.686 22749 0.001 0.015138420413 35.779821971775 0.063540229008039
8	5685969 560404 25 553999 0.001 29.686 29686 0 591 873126 84292210
9	6246373 559359 25 553999 0.001 29.686 29686 0 580 861440 95237948
10	6805732 586315 25 553980 0.001 29.685 29685 0 644 860041 144304649
11	7392047 588266 25 553980 0.001 29.685 29685 0 1247 857236 142520036
12	7980313 589585 25 553980 0.001 29.685 29685 0 956 859606 98018400
13	8569898 589996 25 553980 0.001 29.685 29685 0 1504 866090 91366796
14	9159894 590351 25 553980 0.001 29.685 29685 0 710 868796 79786790
15	9750245 590553 25 553980 0.001 29.685 29685 0 869 867185 77264185
16	10340798 590566 25 553980 0.001 29.685 29685 0 480 867981 73106607
17	10931364 590562 25 553980 0.001 29.685 29685 0 489 858699 71274593
18	11521926 738161 45 553999 0.002 29.686 22896 0.001000007044 0.03794394688 59.395422743026 0.28102246412842
19	12260087 728073 107 553904 0.005 29.681 22593 0.001000046925 0.013635309645 35.400943479517 0.061607765531137
vector 20 CellularNetwork.antenna throughput:vector ETV
attr source throughput
vector 21 CellularNetwork.antenna NumServedUser:vector ETV
attr source NumServedUser
0	12988328 661438 554034 1061749 29.688 56.831 20737 0.001000048416 0.058467734108 95.438726003509 1.2540132304889
1	13649766 671300 554050 1061749 29.689 56.831 21048 0.001000174923 0.264554422223 792.96912009179 83.96428527743
2	14321066 663213 554124 1061691 29.693 56.828 20791 0.001000108849 0.08591653794 96.28911010361 2.0243361712685
3	14984279 672474 554017 1061711 29.687 56.829 21085 0.001000016253 0.075682691966 56.642273804289 0.63143161215579
4	15656753 664305 554069 1061749 29.69 56.831 20824 0.001000010605 0.045977211422 42.895765540537 0.21317788921476
5	16321058 669515 554017 1061711 29.687 56.829 20989 0.001000127871 0.036164192617 39.232971179031 0.14690778261183
6	16990573 672131 554034 1061749 29.688 56.831 21064 0.001000079543 0.030321344355 35.613305536365 0.090893505049285
7	17662704 668023 554017 1061749 29.687 56.831 20946 0.001000017798 0.019838813759 33.219243029996 0.063064774725011
8	18330727 530290 554017 1061749 29.687 56.831 27145 0 490 792772 74677470
9	18861017 529349 554017 1061749 29.687 56.831 27145 0 562 789996 87495104
10	19390366 554272 553999 1061749 29.686 56.831 27146 0 957 800346 135137496
11	19944638 555936 553999 1061749 29.686 56.831 27146 0 1258 791371 129210057
12	20500574 557099 553999 1061733 29.686 56.83 27145 0 1408 800325 94559967
13	21057673 557409 553999 1061733 29.686 56.83 27145 0 974 794437 81449949
14	21615082 557683 553999 1061733 29.686 56.83 27145 0 698 799937 75858041
15	22172765 557870 553999 1061733 29.686 56.83 27145 0 959 797356 72031416
16	22730635 557984 553999 1061733 29.686 56.83 27145 0 745 797119 67591019
17	23288619 557899 553999 1061733 29.686 56.83 27145 0 772 784127 65392585
18	23846518 690039 554017 1061749 29.687 56.831 20973 0.001000009543 0.047711732146 55.334795027374 0.30934524784779
19	24536557 681538 554017 1061749 29.687 56.831 20715 0.001000114492 0.01475808565 32.345582894706 0.055687913183023
20	25218095 480091 653435 1061749 35 56.831 21832 0 1489 6386499 2380426833
21	25698186 437489 653435 1061749 35 56.831 21832 0 9 103358 535856
0	26135675 669429 1061811 1559395 56.834 83.472 20429 0.001000047308 0.060027306753 103.01935863414 1.5069176818527
1	26805104 670089 1061766 1559379 56.832 83.471 20442 0.001000055873 0.29516778309 678.532239376 66.512874531367
2	27475193 665792 1062051 1559178 56.847 83.46 20321 0.001000062826 0.077560258923 85.519921148336 1.600384852905
3	28140985 668389 1061766 1559395 56.832 83.472 20399 0.001000057055 0.073626432659 54.503376835087 0.55440469561773
4	28809374 666735 1061766 1559415 56.832 83.473 20346 0.001000017679 0.067711167663 44.356659054163 0.33658835299784
5	29476109 675271 1061766 1559395 56.832 83.472 20603 0.001000006169 0.033383788368 37.467278145751 0.12633209923225
6	30151380 672082 1061787 1559395 56.833 83.472 20505 0.001000004176 0.037434413262 35.699695283168 0.1168620975464
7	30823462 672930 1061829 1559379 56.835 83.471 20531 0.001000077183 0.025996767644 33.399308022914 0.073218566852719
8	31496392 543837 1061766 1559395 56.832 83.472 26641 0 397 770167 71876537
9	32040229 542863 1061766 1559395 56.832 83.472 26641 0 832 780128 89606596
10	32583092 567270 1061766 1559395 56.832 83.472 26641 0 888 775957 130130001
11	33150362 569197 1061766 1559395 56.832 83.472 26641 0 1284 771493 118020241
12	33719559 570079 1061749 1559395 56.831 83.472 26642 0 1192 776012 94192080
13	34289638 570386 1061749 1559395 56.831 83.472 26642 0 1244 771775 79402471
14	34860024 570824 1061749 1559395 56.831 83.472 26642 0 758 783568 71407550
15	35430848 570849 1061749 1559395 56.831 83.472 26642 0 1273 779571 73315629
16	36001697 571027 1061749 1559395 56.831 83.472 26642 0 1024 781958 68557476
17	36572724 571103 1061749 1559395 56.831 83.472 26642 0 381 785269 65993615
18	37143827 686407 1061787 1559379 56.833 83.471 20321 0.001000041896 0.037989470147 51.059224670593 0.23065716424091
19	37830234 699058 1061787 1559395 56.833 83.472 20693 0.001000075623 0.012056740656 32.401959341207 0.056097706549111
20	38529292 608433 1061766 1559395 56.832 83.472 26641 0 1839 7775659 2891296997
21	39137725 556477 1061766 1559395 56.832 83.472 26641 0 9 126036 652646
0	39694202 671870 1559453 2057061 83.475 110.089 20257 0.0010000692 0.061233045044 93.709238672451 1.3255097410501
1	40366072 687908 1559415 2056843 83.473 110.077 20749 0.001000272611 0.240972030347 673.20111918463 51.079877234099
2	41053980 682237 1559510 2057044 83.478 110.088 20576 0.001000078681 0.101284808047 85.667843689018 1.7304390382874
3	41736217 688877 1559434 2057061 83.474 110.089 20768 0.001000057806 0.082756455954 55.450944450254 0.59420999886897
4	42425094 676533 1559415 2057061 83.473 110.089 20402 0.001000049917 0.036833340248 40.38301297046 0.18318621356338
5	43101627 670565 1559453 2057079 83.475 110.09 20228 0.001000006393 0.028862452954 36.519084974032 0.11644993997249
6	43772192 678836 1559415 2057079 83.473 110.09 20473 0.001000017659 0.039961545276 35.040745576494 0.10129240710937
7	44451028 675574 1559453 2057079 83.475 110.09 20377 0.001000202121 0.013482387632 32.162696097577 0.057823830008077
8	45126602 553526 1559415 2057079 83.473 110.09 26618 0 457 774877 72393211
9	45680128 552605 1559415 2057079 83.473 110.09 26618 0 648 772061 85247591
10	46232733 576761 1559415 2057079 83.473 110.09 26618 0 855 789256 135302048
11	46809494 578891 1559415 2057079 83.473 110.09 26618 0 1109 778774 120110106
12	47388385 579765 1559415 2057079 83.473 110.09 26618 0 1333 790099 99963813
13	47968150 580126 1559415 2057079 83.473 110.09 26618 0 849 775869 76307121
14	48548276 580196 1559415 2057079 83.473 110.09 26618 0 848 772070 71794434
15	49128472 580410 1559415 2057079 83.473 110.09 26618 0 1032 776913 71258069
16	49708882 580510 1559415 2057061 83.473 110.089 26617 0 516 774504 64781296
17	50289392 580650 1559415 2057061 83.473 110.089 26617 0 568 777971 64928347
18	50870042 700921 1559491 2057079 83.477 110.09 20529 0.001000024688 0.025102257878 51.089508920619 0.21359876955966
19	51570963 700772 1559415 2057061 83.473 110.089 20515 0.00100004472 0.017847225108 32.277432297447 0.057678832642719
20	52271735 618000 1559415 2057079 83.473 110.09 26618 0 1897 7782408 2899092348
21	52889735 566087 1559415 2057079 83.473 110.09 26618 0 9 126063 654071
0	53455822 257389 2057097 2242173 110.091 119.996 7621 0.00100047327 0.060894369583 33.617282624637 0.40173527531303
1	53713211 257258 2057800 2242248 110.128 120 7618 0.001000136642 0.249240263501 303.99560484101 30.75730287814
2	53970469 253970 2057097 2241970 110.091 119.985 7519 0.001000197545 0.08106081559 29.56342952617 0.55486912615529
3	54224439 258930 2057134 2242248 110.093 120 7666 0.001000078539 0.056451593796 20.492077460768 0.2299888179
4	54483369 260658 2057097 2242248 110.091 120 7718 0.001000008083 0.050152200707 17.106194089543 0.12897761702543
5	54744027 255129 2057115 2242230 110.092 119.999 7554 0.001000060743 0.030392228536 13.457037569701 0.038913600586054
6	54999156 254584 2057134 2242248 110.093 120 7539 0.001000113679 0.031844751643 12.838711952424 0.035950240346117
7	55253740 260668 2057115 2242212 110.092 119.998 7715 0.001000185525 0.02495762489 12.609003290451 0.027962105301031
8	55514408 212247 2057097 2242248 110.091 120 9910 0 466 293733 28590213
9	55726655 211915 2057097 2242248 110.091 120 9910 0 464 290636 32004982
10	55938570 220905 2057097 2242248 110.091 120 9910 0 856 290621 49827457
11	56159475 221680 2057097 2242248 110.091 120 9910 0 935 286119 42033465
12	56381155 222004 2057097 2242248 110.091 120 9910 0 966 290411 34425299
13	56603159 222143 2057097 2242248 110.091 120 9910 0 1027 292926 31960076
14	56825302 222207 2057097 2242248 110.091 120 9910 0 504 289459 26362831
15	57047509 222175 2057097 2242248 110.091 120 9910 0 1039 285985 26217299
16	57269684 222372 2057079 2242248 110.09 120 9911 0 830 295316 26861318
17	57492056 222288 2057079 2242248 110.09 120 9911 0 437 288224 24053712
18	57714344 266657 2057115 2242230 110.092 119.999 7665 0.001000686797 0.031159998229 20.47441423011 0.10536159513556
19	57981001 262601 2057097 2242248 110.091 120 7549 0.001000192646 0.016309501694 11.787802455647 0.020268450887809
20	58243602 236197 2057097 2242248 110.091 120 9910 0 1306 2903416 1079199112
21	58479799 216909 2057097 2242248 110.091 120 9910 0 9 46907 243299

