version 2
run General-0-20191218-16:12:18-18040
attr configname General
attr datetime 20191218-16:12:18
attr experiment General
attr inifile omnetpp.ini
attr iterationvars ""
attr iterationvarsf ""
attr measurement ""
attr network CellularNetwork
attr processid 18040
attr repetition 0
attr replication #0
attr resultdir results
attr runnumber 0
attr seedset 0
param **.nUsers 10
param **.antenna.timeslot 0.01s
param **.user[*].lambda 0.008s

vector 0 CellularNetwork.antenna throughput:vector ETV
attr source throughput
vector 1 CellularNetwork.antenna NumServedUser:vector ETV
attr source NumServedUser
vector 2 CellularNetwork.antenna responseTime:vector ETV
attr source responseTime
0	60	0.01	0
0	99	0.02	555300
0	146	0.03	369000
0	173	0.04	294000
0	204	0.05	256800
0	249	0.06	264000
0	292	0.07	105600
0	331	0.08	171000
0	384	0.09	238500
0	435	0.1	424000
0	460	0.11	491400
0	491	0.12	50600
0	516	0.13	96000
0	551	0.14	129000
0	582	0.15	101100
0	623	0.16	94800
0	668	0.17	171000
0	705	0.18	376600
0	738	0.19	139200
0	765	0.2	205500
0	790	0.21	608000
0	815	0.22	763700
0	848	0.23	68400
0	883	0.24	123000
0	918	0.25	509600
0	949	0.26	282400
0	978	0.27	181000
0	1013	0.28	138600
0	1048	0.29	310400
0	1089	0.3	298200
0	1124	0.31	211000
0	1165	0.32	102000
0	1202	0.33	90400
0	1253	0.34	181500
0	1288	0.35	184500
0	1327	0.36	16500
0	1366	0.37	457800
0	1417	0.38	384600
0	1442	0.39	130500
0	1473	0.4	183500
0	1504	0.41	195600
0	1545	0.42	653600
0	1576	0.43	279000
0	1615	0.44	384000
0	1642	0.45	576000
0	1673	0.46	297500
0	1702	0.47	144000
0	1739	0.48	282000
0	1776	0.49	463000
0	1823	0.5	508000
0	1856	0.51	409500
0	1881	0.52	267400
0	1930	0.53	395200
0	1967	0.54	250600
0	2008	0.55	189700
0	2037	0.56	306600
0	2070	0.57	280800
0	2097	0.58	623700
0	2138	0.59	210600
0	2173	0.6	242500
0	2210	0.61	115000
0	2241	0.62	424200
0	2280	0.63	451800
0	2321	0.64	115800
0	2356	0.65	713000
0	2389	0.66	263900
0	2438	0.67	103600
0	2473	0.68	156400
0	2506	0.69	130400
0	2539	0.7	751200
0	2568	0.71	504700
0	2595	0.72	522200
0	2642	0.73	173000
0	2683	0.74	269500
0	2716	0.75	300300
0	2745	0.76	444000
0	2784	0.77	178000
0	2825	0.78	585900
0	2858	0.79	510400
0	2893	0.8	210700
0	2930	0.81	296000
0	2969	0.82	452800
0	3006	0.83	448200
0	3041	0.84	400000
0	3084	0.85	431200
0	3109	0.86	397600
0	3138	0.87	139600
0	3185	0.88	300000
0	3212	0.89	307300
0	3251	0.9	333000
0	3296	0.91	240000
0	3315	0.92	171500
0	3358	0.93	363600
0	3395	0.94	423200
0	3432	0.95	331200
0	3473	0.96	361200
0	3500	0.97	537300
0	3531	0.98	186000
0	3568	0.99	89200
0	3611	1	317800
0	3654	1.01	136500
0	3695	1.02	542500
0	3738	1.03	866700
0	3771	1.04	422100
0	3808	1.05	76000
0	3841	1.06	506700
0	3872	1.07	214200
0	3909	1.08	133500
0	3956	1.09	495200
0	3989	1.1	345100
0	4030	1.11	350700
0	4071	1.12	386400
0	4112	1.13	160400
0	4151	1.14	70200
0	4192	1.15	226800
0	4225	1.16	489300
0	4262	1.17	415800
0	4299	1.18	566300
0	4340	1.19	271200
0	4369	1.2	737000
0	4392	1.21	96000
0	4429	1.22	74400
0	4464	1.23	87900
0	4495	1.24	390600
0	4542	1.25	369900
0	4585	1.26	340900
0	4618	1.27	202000
0	4651	1.28	232500
0	4690	1.29	131700
0	4713	1.3	294000
0	4748	1.31	219500
0	4781	1.32	155200
0	4808	1.33	691200
0	4837	1.34	173400
0	4882	1.35	164000
0	4925	1.36	419200
0	4960	1.37	106000
0	4987	1.38	289800
0	5020	1.39	209300
0	5071	1.4	143000
0	5100	1.41	224400
0	5127	1.42	464800
0	5156	1.43	582400
0	5195	1.44	491400
0	5216	1.45	595800
0	5251	1.46	54800
0	5288	1.47	67200
0	5321	1.48	176000
0	5350	1.49	114000
0	5401	1.5	342000
0	5444	1.51	224500
0	5473	1.52	445900
0	5504	1.53	124800
0	5549	1.54	120600
0	5584	1.55	292000
0	5619	1.56	272500
0	5662	1.57	296400
0	5691	1.58	513800
0	5718	1.59	385000
0	5765	1.6	171500
0	5800	1.61	140000
0	5841	1.62	188400
0	5880	1.63	330000
0	5917	1.64	260400
0	5942	1.65	642600
0	5981	1.66	238000
0	6016	1.67	533600
0	6049	1.68	124000
0	6086	1.69	259000
0	6127	1.7	383200
0	6172	1.71	84400
0	6207	1.72	132800
0	6240	1.73	91800
0	6281	1.74	747600
0	6320	1.75	652000
0	6361	1.76	85000
0	6400	1.77	291200
0	6433	1.78	776700
0	6462	1.79	119000
0	6481	1.8	90000
0	6514	1.81	188500
0	6555	1.82	154000
0	6592	1.83	349300
0	6627	1.84	647200
0	6664	1.85	131400
0	6707	1.86	783000
0	6748	1.87	44700
0	6777	1.88	284900
0	6808	1.89	945900
0	6843	1.9	280000
0	6872	1.91	112800
0	6911	1.92	480200
0	6940	1.93	508500
0	6971	1.94	120000
0	7010	1.95	176000
0	7037	1.96	49500
0	7074	1.97	371000
0	7101	1.98	212000
0	7134	1.99	380100
0	7171	2	210000
0	7214	2.01	411200
0	7247	2.02	204000
0	7286	2.03	53700
0	7319	2.04	275000
0	7352	2.05	861600
0	7379	2.06	254100
0	7418	2.07	101600
0	7457	2.08	378400
0	7506	2.09	293400
0	7543	2.1	178200
0	7572	2.11	311400
0	7613	2.12	516600
0	7642	2.13	666000
0	7683	2.14	193800
0	7712	2.15	416800
0	7747	2.16	126800
0	7788	2.17	181800
0	7823	2.18	544000
0	7864	2.19	506700
0	7905	2.2	586000
0	7936	2.21	78400
0	7967	2.22	735700
0	8002	2.23	240800
0	8039	2.24	23200
0	8064	2.25	25800
0	8097	2.26	277000
0	8140	2.27	215600
0	8191	2.28	388200
0	8234	2.29	334600
0	8273	2.3	676000
0	8308	2.31	108900
0	8347	2.32	163600
0	8388	2.33	364200
0	8413	2.34	39600
0	8460	2.35	352200
0	8515	2.36	547400
0	8566	2.37	726300
0	8601	2.38	601200
0	8648	2.39	533700
0	8675	2.4	554400
0	8706	2.41	198000
0	8737	2.42	268800
0	8782	2.43	179000
0	8819	2.44	439200
0	8854	2.45	235000
0	8893	2.46	191000
0	8936	2.47	70000
0	8981	2.48	936900
0	9014	2.49	99900
0	9049	2.5	405300
0	9076	2.51	701600
0	9099	2.52	85000
0	9142	2.53	117500
0	9195	2.54	268800
0	9230	2.55	531200
0	9267	2.56	83700
0	9298	2.57	367500
0	9345	2.58	579600
0	9378	2.59	865000
0	9413	2.6	169000
0	9448	2.61	533600
0	9489	2.62	123500
0	9524	2.63	437600
0	9553	2.64	427700
0	9596	2.65	108000
0	9637	2.66	72000
0	9672	2.67	220000
0	9705	2.68	483300
0	9740	2.69	393400
0	9783	2.7	506700
0	9838	2.71	175000
0	9869	2.72	29100
0	9900	2.73	388500
0	9945	2.74	140400
0	9982	2.75	196000
0	10015	2.76	336800
0	10058	2.77	226800
0	10091	2.78	107700
0	10128	2.79	1322000
0	10169	2.8	278400
0	10206	2.81	429600
0	10257	2.82	295800
0	10302	2.83	643500
0	10329	2.84	803700
0	10378	2.85	183600
0	10407	2.86	694800
0	10448	2.87	272400
0	10477	2.88	701000
0	10518	2.89	124800
0	10547	2.9	484000
0	10572	2.91	318500
0	10615	2.92	73200
0	10652	2.93	489300
0	10691	2.94	391200
0	10726	2.95	261000
0	10779	2.96	411000
0	10810	2.97	320000
0	10837	2.98	444800
0	10868	2.99	189000
0	10899	3	229800
0	10932	3.01	197400
0	10975	3.02	377600
0	10998	3.03	333600
0	11033	3.04	86000
0	11062	3.05	181000
0	11101	3.06	170000
0	11146	3.07	428800
0	11187	3.08	182400
0	11218	3.09	280800
0	11253	3.1	75400
0	11294	3.11	273700
0	11325	3.12	500800
0	11372	3.13	96000
0	11399	3.14	192000
0	11434	3.15	880000
0	11477	3.16	437600
0	11504	3.17	196200
0	11549	3.18	465600
0	11596	3.19	331800
0	11643	3.2	361600
0	11684	3.21	250800
0	11713	3.22	816300
0	11750	3.23	411600
0	11779	3.24	327200
0	11814	3.25	132600
0	11853	3.26	120000
0	11896	3.27	262000
0	11929	3.28	566300
0	11954	3.29	372600
0	11985	3.3	236400
0	12014	3.31	214200
0	12057	3.32	157200
0	12102	3.33	518400
0	12143	3.34	367500
0	12184	3.35	375900
0	12217	3.36	381000
0	12252	3.37	312500
0	12295	3.38	260400
0	12338	3.39	727200
0	12381	3.4	84500
0	12412	3.41	271600
0	12447	3.42	624800
0	12474	3.43	477900
0	12513	3.44	147500
0	12554	3.45	187800
0	12589	3.46	1072000
0	12632	3.47	324800
0	12677	3.48	329400
0	12728	3.49	254400
0	12755	3.5	160800
0	12796	3.51	449400
0	12839	3.52	176400
0	12884	3.53	940000
0	12917	3.54	282600
0	12944	3.55	656000
0	12969	3.56	98000
0	13010	3.57	80400
0	13037	3.58	382400
0	13076	3.59	112200
0	13119	3.6	133200
0	13152	3.61	686700
0	13185	3.62	56400
0	13218	3.63	78300
0	13251	3.64	429100
0	13280	3.65	479500
0	13311	3.66	370300
0	13344	3.67	79600
0	13391	3.68	559300
0	13424	3.69	447300
0	13467	3.7	317100
0	13506	3.71	380800
0	13529	3.72	572400
0	13566	3.73	155400
0	13605	3.74	152000
0	13646	3.75	364500
0	13667	3.76	500500
0	13700	3.77	84300
0	13729	3.78	403200
0	13760	3.79	220500
0	13803	3.8	297600
0	13854	3.81	357000
0	13885	3.82	119200
0	13924	3.83	675200
0	13951	3.84	105000
0	13984	3.85	192500
0	14027	3.86	32600
0	14066	3.87	64800
0	14105	3.88	34900
0	14134	3.89	454800
0	14183	3.9	478800
0	14218	3.91	145000
0	14261	3.92	305000
0	14292	3.93	769800
0	14327	3.94	73200
0	14362	3.95	160400
0	14407	3.96	306600
0	14446	3.97	429800
0	14477	3.98	654400
0	14504	3.99	128000
0	14537	4	130800
0	14574	4.01	157800
0	14609	4.02	243600
0	14650	4.03	93600
0	14685	4.04	528000
0	14720	4.05	496800
0	14753	4.06	120300
0	14806	4.07	310400
0	14837	4.08	740700
0	14872	4.09	63000
0	14907	4.1	740700
0	14934	4.11	117500
0	14973	4.12	397600
0	15002	4.13	97500
0	15035	4.14	259800
0	15072	4.15	158000
0	15097	4.16	684900
0	15132	4.17	190200
0	15181	4.18	219100
0	15216	4.19	123600
0	15255	4.2	520800
0	15290	4.21	681300
0	15331	4.22	120400
0	15354	4.23	178000
0	15381	4.24	209000
0	15420	4.25	179500
0	15457	4.26	96400
0	15484	4.27	926100
0	15517	4.28	157800
0	15538	4.29	148000
0	15575	4.3	246600
0	15624	4.31	187800
0	15655	4.32	671400
0	15700	4.33	389200
0	15741	4.34	434400
0	15768	4.35	626400
0	15801	4.36	282100
0	15842	4.37	236000
0	15879	4.38	89400
0	15906	4.39	109000
0	15939	4.4	90900
0	15968	4.41	888000
0	16007	4.42	211000
0	16044	4.43	232200
0	16073	4.44	486900
0	16122	4.45	141600
0	16149	4.46	543600
0	16184	4.47	160800
0	16215	4.48	289600
0	16246	4.49	351600
0	16283	4.5	277800
0	16310	4.51	251300
0	16339	4.52	192500
0	16368	4.53	100000
0	16395	4.54	193800
0	16428	4.55	165500
0	16475	4.56	177000
0	16512	4.57	187800
0	16555	4.58	482300
0	16594	4.59	298900
0	16633	4.6	286300
0	16662	4.61	59100
0	16695	4.62	252000
0	16726	4.63	32600
0	16763	4.64	182500
0	16804	4.65	88800
0	16841	4.66	274800
0	16878	4.67	435600
0	16921	4.68	310800
0	16962	4.69	250000
0	17001	4.7	205600
0	17046	4.71	864000
0	17077	4.72	57200
0	17104	4.73	279500
0	17141	4.74	433200
0	17172	4.75	112000
0	17195	4.76	58500
0	17222	4.77	364700
0	17253	4.78	158400
0	17288	4.79	281400
0	17333	4.8	164400
0	17366	4.81	643500
0	17393	4.82	424900
0	17424	4.83	349200
0	17455	4.84	205800
0	17494	4.85	72600
0	17535	4.86	898000
0	17568	4.87	91000
0	17607	4.88	525600
0	17640	4.89	179000
0	17673	4.9	794400
0	17710	4.91	24000
0	17745	4.92	436800
0	17782	4.93	132500
0	17813	4.94	456800
0	17844	4.95	352100
0	17877	4.96	190800
0	17928	4.97	253800
0	17955	4.98	597000
0	18010	4.99	101500
0	18049	5	548100
0	18084	5.01	539200
0	18107	5.02	70800
0	18140	5.03	235200
0	18171	5.04	493200
0	18196	5.05	324000
0	18227	5.06	126500
0	18258	5.07	105500
0	18281	5.08	341600
0	18328	5.09	114000
0	18357	5.1	470700
0	18392	5.11	122000
0	18431	5.12	122000
0	18468	5.13	678600
0	18495	5.14	349600
0	18522	5.15	191000
0	18551	5.16	253800
0	18588	5.17	181200
0	18623	5.18	226800
0	18662	5.19	45000
0	18695	5.2	296400
0	18738	5.21	273000
0	18773	5.22	265500
0	18808	5.23	126600
0	18839	5.24	595000
0	18872	5.25	323200
0	18901	5.26	291900
0	18936	5.27	316000
0	18965	5.28	189200
0	19000	5.29	312200
0	19035	5.3	72000
0	19074	5.31	673600
0	19113	5.32	366400
0	19148	5.33	279600
0	19191	5.34	82400
0	19226	5.35	534400
0	19261	5.36	962000
0	19284	5.37	368800
0	19325	5.38	32000
0	19354	5.39	328500
0	19393	5.4	175200
0	19430	5.41	216000
0	19467	5.42	128000
0	19504	5.43	476000
0	19535	5.44	288000
0	19576	5.45	345100
0	19627	5.46	142800
0	19670	5.47	505400
0	19713	5.48	170800
0	19738	5.49	114800
0	19791	5.5	544600
0	19826	5.51	210000
0	19851	5.52	181600
0	19876	5.53	82400
0	19925	5.54	773000
0	19984	5.55	621600
0	20007	5.56	364000
0	20040	5.57	412800
0	20069	5.58	73800
0	20116	5.59	154000
0	20151	5.6	577600
0	20186	5.61	88400
0	20221	5.62	199800
0	20258	5.63	980000
0	20293	5.64	419300
0	20340	5.65	145600
0	20377	5.66	479500
0	20414	5.67	139000
0	20451	5.68	423600
0	20484	5.69	527400
0	20527	5.7	472200
0	20564	5.71	184000
0	20599	5.72	520200
0	20636	5.73	185000
0	20671	5.74	301600
0	20704	5.75	359200
0	20739	5.76	320600
0	20780	5.77	294000
0	20817	5.78	181000
0	20844	5.79	178200
0	20895	5.8	162500
0	20930	5.81	102800
0	20963	5.82	606400
0	20998	5.83	404400
0	21037	5.84	81300
0	21070	5.85	110400
0	21099	5.86	406000
0	21132	5.87	134000
0	21155	5.88	870400
0	21192	5.89	172800
0	21219	5.9	27800
0	21260	5.91	379200
0	21297	5.92	404100
0	21346	5.93	154000
0	21381	5.94	103200
0	21418	5.95	126300
0	21443	5.96	160400
0	21484	5.97	879300
0	21505	5.98	789600
0	21538	5.99	39900
0	21577	6	370800
0	21602	6.01	345800
0	21655	6.02	173000
0	21692	6.03	459200
0	21733	6.04	273700
0	21756	6.05	531000
0	21805	6.06	203000
0	21838	6.07	294700
0	21875	6.08	380100
0	21898	6.09	432000
0	21935	6.1	188400
0	21968	6.11	437000
0	22019	6.12	84900
0	22050	6.13	1114000
0	22077	6.14	301700
0	22110	6.15	215400
0	22145	6.16	150600
0	22176	6.17	66800
0	22215	6.18	396200
0	22246	6.19	536000
0	22269	6.2	185000
0	22314	6.21	96500
0	22365	6.22	497600
0	22408	6.23	637200
0	22445	6.24	263200
0	22470	6.25	428000
0	22505	6.26	93600
0	22558	6.27	186600
0	22595	6.28	152400
0	22628	6.29	183200
0	22655	6.3	605500
0	22690	6.31	237000
0	22737	6.32	315000
0	22766	6.33	217000
0	22801	6.34	332500
0	22832	6.35	343500
0	22865	6.36	152700
0	22906	6.37	485600
0	22937	6.38	441600
0	22976	6.39	295200
0	23003	6.4	182400
0	23060	6.41	210500
0	23089	6.42	192000
0	23124	6.43	828000
0	23145	6.44	410400
0	23184	6.45	96000
0	23217	6.46	59200
0	23258	6.47	559800
0	23301	6.48	166800
0	23344	6.49	563400
0	23377	6.5	396800
0	23410	6.51	467200
0	23437	6.52	563000
0	23468	6.53	265800
0	23503	6.54	142200
0	23542	6.55	231600
0	23589	6.56	451200
0	23628	6.57	261600
0	23677	6.58	232200
0	23702	6.59	280800
0	23733	6.6	548100
0	23770	6.61	165000
0	23809	6.62	207600
0	23854	6.63	437600
0	23897	6.64	719100
0	23922	6.65	460800
0	23963	6.66	127200
0	23996	6.67	94000
0	24027	6.68	629100
0	24058	6.69	239400
0	24085	6.7	274400
0	24136	6.71	224400
0	24177	6.72	453600
0	24200	6.73	837900
0	24229	6.74	122500
0	24266	6.75	40800
0	24309	6.76	393400
0	24336	6.77	144000
0	24371	6.78	147000
0	24414	6.79	537600
0	24443	6.8	673200
0	24474	6.81	204600
0	24499	6.82	74400
0	24530	6.83	119600
0	24561	6.84	98800
0	24600	6.85	621900
0	24633	6.86	100000
0	24666	6.87	364000
0	24697	6.88	150500
0	24728	6.89	317100
0	24757	6.9	216600
0	24790	6.91	288800
0	24839	6.92	284800
0	24874	6.93	591200
0	24909	6.94	184000
0	24958	6.95	269400
0	24993	6.96	334400
0	25024	6.97	197000
0	25051	6.98	197200
0	25106	6.99	108800
0	25147	7	656800
0	25172	7.01	795600
0	25207	7.02	58500
0	25248	7.03	255600
0	25277	7.04	151000
0	25308	7.05	506400
0	25345	7.06	195000
0	25386	7.07	99900
0	25433	7.08	199800
0	25476	7.09	571900
0	25509	7.1	278400
0	25550	7.11	259500
0	25579	7.12	256200
0	25614	7.13	338400
0	25647	7.14	77500
0	25668	7.15	136000
0	25695	7.16	106400
0	25734	7.17	122500
0	25777	7.18	398300
0	25802	7.19	157800
0	25849	7.2	723200
0	25882	7.21	681300
0	25917	7.22	154000
0	25958	7.23	219600
0	25999	7.24	484800
0	26032	7.25	364700
0	26067	7.26	89700
0	26112	7.27	731700
0	26135	7.28	128400
0	26164	7.29	429100
0	26205	7.3	275100
0	26238	7.31	395500
0	26273	7.32	389200
0	26300	7.33	462400
0	26327	7.34	311200
0	26362	7.35	119000
0	26409	7.36	544800
0	26446	7.37	466900
0	26485	7.38	241800
0	26530	7.39	373200
0	26561	7.4	852000
0	26592	7.41	153000
0	26625	7.42	208200
0	26662	7.43	259700
0	26701	7.44	372800
0	26744	7.45	453600
0	26785	7.46	402400
0	26824	7.47	151800
0	26865	7.48	636000
0	26900	7.49	166800
0	26937	7.5	81600
0	26976	7.51	79200
0	27017	7.52	453600
0	27056	7.53	743200
0	27091	7.54	242400
0	27136	7.55	277900
0	27181	7.56	230500
0	27222	7.57	627300
0	27261	7.58	361500
0	27300	7.59	389400
0	27325	7.6	133500
0	27362	7.61	609600
0	27399	7.62	175000
0	27432	7.63	294600
0	27477	7.64	557600
0	27518	7.65	282800
0	27559	7.66	101200
0	27590	7.67	518500
0	27631	7.68	638100
0	27660	7.69	156600
0	27709	7.7	217200
0	27738	7.71	305400
0	27777	7.72	374500
0	27808	7.73	310100
0	27851	7.74	354200
0	27904	7.75	150500
0	27937	7.76	227400
0	27968	7.77	24700
0	27997	7.78	728000
0	28036	7.79	330600
0	28067	7.8	424900
0	28096	7.81	536800
0	28139	7.82	250800
0	28178	7.83	263200
0	28225	7.84	61200
0	28268	7.85	200400
0	28313	7.86	405000
0	28354	7.87	800000
0	28391	7.88	255500
0	28424	7.89	75600
0	28465	7.9	92000
0	28498	7.91	289000
0	28535	7.92	29100
0	28566	7.93	138800
0	28599	7.94	289200
0	28632	7.95	155200
0	28673	7.96	96600
0	28704	7.97	70600
0	28735	7.98	461000
0	28778	7.99	330400
0	28821	8	134000
0	28856	8.01	176000
0	28889	8.02	157600
0	28924	8.03	216000
0	28957	8.04	324000
0	29000	8.05	278500
0	29037	8.06	498000
0	29072	8.07	265800
0	29099	8.08	246000
0	29134	8.09	92000
0	29157	8.1	176000
0	29192	8.11	109600
0	29237	8.12	808200
0	29274	8.13	199200
0	29307	8.14	270000
0	29334	8.15	96600
0	29377	8.16	152000
0	29414	8.17	783000
0	29441	8.18	246400
0	29482	8.19	142500
0	29525	8.2	84400
0	29548	8.21	1048800
0	29585	8.22	34900
0	29626	8.23	172800
0	29667	8.24	685800
0	29692	8.25	345100
0	29725	8.26	112400
0	29772	8.27	137500
0	29819	8.28	132400
0	29856	8.29	267000
0	29887	8.3	1067200
0	29920	8.31	246400
0	29967	8.32	200000
0	30000	8.33	609300
0	30025	8.34	204000
0	30064	8.35	151800
0	30101	8.36	520000
0	30144	8.37	369000
0	30183	8.38	376800
0	30218	8.39	395200
0	30259	8.4	208500
0	30298	8.41	467400
0	30331	8.42	552800
0	30376	8.43	306600
0	30417	8.44	420800
0	30462	8.45	522900
0	30501	8.46	505600
0	30542	8.47	254400
0	30587	8.48	608400
0	30622	8.49	497600
0	30667	8.5	655200
0	30694	8.51	676800
0	30737	8.52	38700
0	30772	8.53	249000
0	30807	8.54	263200
0	30844	8.55	276600
0	30879	8.56	364000
0	30914	8.57	508000
0	30951	8.58	195500
0	30984	8.59	128500
0	31023	8.6	428400
0	31058	8.61	91200
0	31093	8.62	588800
0	31126	8.63	677600
0	31153	8.64	250600
0	31186	8.65	247100
0	31229	8.66	342600
0	31274	8.67	195600
0	31327	8.68	157200
0	31368	8.69	816300
0	31399	8.7	719100
0	31446	8.71	255600
0	31487	8.72	172900
0	31544	8.73	148800
0	31575	8.74	766800
0	31604	8.75	585200
0	31639	8.76	108400
0	31670	8.77	292200
0	31715	8.78	302400
0	31756	8.79	181500
0	31793	8.8	656000
0	31826	8.81	179000
0	31865	8.82	464400
0	31892	8.83	207600
0	31921	8.84	77200
0	31956	8.85	703000
0	31997	8.86	342300
0	32044	8.87	564000
0	32073	8.88	373100
0	32114	8.89	259200
0	32147	8.9	48000
0	32180	8.91	151800
0	32213	8.92	785600
0	32242	8.93	222000
0	32283	8.94	173400
0	32318	8.95	282800
0	32351	8.96	189500
0	32376	8.97	568800
0	32411	8.98	261600
0	32448	8.99	216000
0	32487	9	201000
0	32522	9.01	593600
0	32559	9.02	508000
0	32606	9.03	82400
0	32643	9.04	392800
0	32680	9.05	241200
0	32709	9.06	388800
0	32738	9.07	265300
0	32771	9.08	181200
0	32812	9.09	324000
0	32857	9.1	292600
0	32880	9.11	9400
0	32917	9.12	178500
0	32946	9.13	72900
0	32981	9.14	489000
0	33010	9.15	764100
0	33053	9.16	290500
0	33084	9.17	312200
0	33123	9.18	120600
0	33170	9.19	267000
0	33195	9.2	148000
0	33240	9.21	227400
0	33277	9.22	79600
0	33304	9.23	276000
0	33351	9.24	357000
0	33388	9.25	827000
0	33419	9.26	168000
0	33464	9.27	380000
0	33495	9.28	318500
0	33524	9.29	459200
0	33573	9.3	488800
0	33602	9.31	115200
0	33633	9.32	628200
0	33662	9.33	73200
0	33699	9.34	278600
0	33718	9.35	232000
0	33747	9.36	181000
0	33788	9.37	211400
0	33817	9.38	332500
0	33856	9.39	336000
0	33893	9.4	195500
0	33922	9.41	389900
0	33971	9.42	265300
0	34004	9.43	516800
0	34047	9.44	661500
0	34082	9.45	159500
0	34121	9.46	501600
0	34158	9.47	315200
0	34189	9.48	326900
0	34226	9.49	138800
0	34257	9.5	568800
0	34292	9.51	155000
0	34333	9.52	409600
0	34378	9.53	192500
0	34421	9.54	70200
0	34466	9.55	318000
0	34503	9.56	202400
0	34548	9.57	440500
0	34581	9.58	72600
0	34608	9.59	230500
0	34647	9.6	537000
0	34684	9.61	411200
0	34727	9.62	366800
0	34754	9.63	608400
0	34791	9.64	138000
0	34828	9.65	102400
0	34863	9.66	258300
0	34896	9.67	186500
0	34925	9.68	88600
0	34946	9.69	112800
0	34983	9.7	79200
0	35020	9.71	60000
0	35065	9.72	880000
0	35102	9.73	324000
0	35151	9.74	466200
0	35186	9.75	528000
0	35217	9.76	614400
0	35246	9.77	326200
0	35277	9.78	214900
0	35320	9.79	162600
0	35369	9.8	308000
0	35396	9.81	429600
0	35433	9.82	326400
0	35468	9.83	180000
0	35509	9.84	121500
0	35538	9.85	326200
0	35567	9.86	312000
0	35592	9.87	146400
0	35625	9.88	63600
0	35660	9.89	164500
0	35687	9.9	385700
0	35730	9.91	88800
0	35763	9.92	440000
0	35788	9.93	675200
0	35815	9.94	369600
0	35844	9.95	49200
0	35871	9.96	43500
0	35898	9.97	276000
0	35935	9.98	324100
0	35962	9.99	135500
0	36003	10	321600
1	60	0.01	0
1	99	0.02	9
1	146	0.03	6
1	173	0.04	7
1	204	0.05	6
1	249	0.06	6
1	292	0.07	4
1	331	0.08	5
1	384	0.09	5
1	435	0.1	5
1	460	0.11	7
1	491	0.12	2
1	516	0.13	4
1	551	0.14	5
1	582	0.15	3
1	623	0.16	3
1	668	0.17	3
1	705	0.18	7
1	738	0.19	3
1	765	0.2	3
1	790	0.21	8
1	815	0.22	7
1	848	0.23	4
1	883	0.24	5
1	918	0.25	8
1	949	0.26	8
1	978	0.27	5
1	1013	0.28	6
1	1048	0.29	8
1	1089	0.3	7
1	1124	0.31	5
1	1165	0.32	4
1	1202	0.33	4
1	1253	0.34	5
1	1288	0.35	5
1	1327	0.36	1
1	1366	0.37	6
1	1417	0.38	6
1	1442	0.39	3
1	1473	0.4	5
1	1504	0.41	3
1	1545	0.42	8
1	1576	0.43	6
1	1615	0.44	6
1	1642	0.45	9
1	1673	0.46	7
1	1702	0.47	6
1	1739	0.48	6
1	1776	0.49	10
1	1823	0.5	8
1	1856	0.51	7
1	1881	0.52	7
1	1930	0.53	8
1	1967	0.54	7
1	2008	0.55	7
1	2037	0.56	7
1	2070	0.57	6
1	2097	0.58	9
1	2138	0.59	6
1	2173	0.6	5
1	2210	0.61	5
1	2241	0.62	6
1	2280	0.63	6
1	2321	0.64	6
1	2356	0.65	10
1	2389	0.66	7
1	2438	0.67	4
1	2473	0.68	4
1	2506	0.69	4
1	2539	0.7	8
1	2568	0.71	7
1	2595	0.72	7
1	2642	0.73	5
1	2683	0.74	7
1	2716	0.75	7
1	2745	0.76	8
1	2784	0.77	5
1	2825	0.78	7
1	2858	0.79	8
1	2893	0.8	7
1	2930	0.81	8
1	2969	0.82	8
1	3006	0.83	9
1	3041	0.84	8
1	3084	0.85	8
1	3109	0.86	7
1	3138	0.87	4
1	3185	0.88	8
1	3212	0.89	7
1	3251	0.9	6
1	3296	0.91	6
1	3315	0.92	5
1	3358	0.93	6
1	3395	0.94	8
1	3432	0.95	8
1	3473	0.96	7
1	3500	0.97	9
1	3531	0.98	6
1	3568	0.99	4
1	3611	1	7
1	3654	1.01	3
1	3695	1.02	7
1	3738	1.03	9
1	3771	1.04	9
1	3808	1.05	4
1	3841	1.06	9
1	3872	1.07	6
1	3909	1.08	5
1	3956	1.09	8
1	3989	1.1	7
1	4030	1.11	7
1	4071	1.12	8
1	4112	1.13	4
1	4151	1.14	3
1	4192	1.15	6
1	4225	1.16	7
1	4262	1.17	6
1	4299	1.18	7
1	4340	1.19	6
1	4369	1.2	10
1	4392	1.21	5
1	4429	1.22	4
1	4464	1.23	3
1	4495	1.24	6
1	4542	1.25	9
1	4585	1.26	7
1	4618	1.27	5
1	4651	1.28	5
1	4690	1.29	3
1	4713	1.3	6
1	4748	1.31	5
1	4781	1.32	4
1	4808	1.33	8
1	4837	1.34	6
1	4882	1.35	5
1	4925	1.36	8
1	4960	1.37	4
1	4987	1.38	6
1	5020	1.39	7
1	5071	1.4	5
1	5100	1.41	6
1	5127	1.42	8
1	5156	1.43	8
1	5195	1.44	7
1	5216	1.45	9
1	5251	1.46	4
1	5288	1.47	3
1	5321	1.48	4
1	5350	1.49	4
1	5401	1.5	6
1	5444	1.51	5
1	5473	1.52	7
1	5504	1.53	4
1	5549	1.54	3
1	5584	1.55	5
1	5619	1.56	5
1	5662	1.57	6
1	5691	1.58	7
1	5718	1.59	7
1	5765	1.6	5
1	5800	1.61	4
1	5841	1.62	4
1	5880	1.63	5
1	5917	1.64	6
1	5942	1.65	7
1	5981	1.66	7
1	6016	1.67	8
1	6049	1.68	5
1	6086	1.69	7
1	6127	1.7	8
1	6172	1.71	4
1	6207	1.72	4
1	6240	1.73	2
1	6281	1.74	7
1	6320	1.75	8
1	6361	1.76	5
1	6400	1.77	7
1	6433	1.78	9
1	6462	1.79	5
1	6481	1.8	4
1	6514	1.81	5
1	6555	1.82	5
1	6592	1.83	7
1	6627	1.84	8
1	6664	1.85	6
1	6707	1.86	9
1	6748	1.87	3
1	6777	1.88	7
1	6808	1.89	9
1	6843	1.9	7
1	6872	1.91	4
1	6911	1.92	7
1	6940	1.93	9
1	6971	1.94	4
1	7010	1.95	5
1	7037	1.96	3
1	7074	1.97	7
1	7101	1.98	5
1	7134	1.99	7
1	7171	2	6
1	7214	2.01	8
1	7247	2.02	6
1	7286	2.03	3
1	7319	2.04	5
1	7352	2.05	8
1	7379	2.06	7
1	7418	2.07	4
1	7457	2.08	8
1	7506	2.09	6
1	7543	2.1	6
1	7572	2.11	6
1	7613	2.12	7
1	7642	2.13	9
1	7683	2.14	6
1	7712	2.15	8
1	7747	2.16	4
1	7788	2.17	6
1	7823	2.18	8
1	7864	2.19	9
1	7905	2.2	10
1	7936	2.21	4
1	7967	2.22	7
1	8002	2.23	8
1	8039	2.24	2
1	8064	2.25	2
1	8097	2.26	5
1	8140	2.27	4
1	8191	2.28	6
1	8234	2.29	7
1	8273	2.3	8
1	8308	2.31	3
1	8347	2.32	4
1	8388	2.33	6
1	8413	2.34	3
1	8460	2.35	6
1	8515	2.36	7
1	8566	2.37	9
1	8601	2.38	9
1	8648	2.39	9
1	8675	2.4	8
1	8706	2.41	6
1	8737	2.42	6
1	8782	2.43	5
1	8819	2.44	8
1	8854	2.45	5
1	8893	2.46	5
1	8936	2.47	2
1	8981	2.48	9
1	9014	2.49	3
1	9049	2.5	7
1	9076	2.51	8
1	9099	2.52	5
1	9142	2.53	5
1	9195	2.54	6
1	9230	2.55	8
1	9267	2.56	3
1	9298	2.57	7
1	9345	2.58	7
1	9378	2.59	10
1	9413	2.6	5
1	9448	2.61	8
1	9489	2.62	5
1	9524	2.63	8
1	9553	2.64	7
1	9596	2.65	6
1	9637	2.66	3
1	9672	2.67	4
1	9705	2.68	9
1	9740	2.69	7
1	9783	2.7	9
1	9838	2.71	7
1	9869	2.72	1
1	9900	2.73	7
1	9945	2.74	4
1	9982	2.75	4
1	10015	2.76	4
1	10058	2.77	4
1	10091	2.78	3
1	10128	2.79	10
1	10169	2.8	8
1	10206	2.81	8
1	10257	2.82	6
1	10302	2.83	9
1	10329	2.84	9
1	10378	2.85	6
1	10407	2.86	9
1	10448	2.87	6
1	10477	2.88	10
1	10518	2.89	6
1	10547	2.9	8
1	10572	2.91	7
1	10615	2.92	4
1	10652	2.93	7
1	10691	2.94	8
1	10726	2.95	6
1	10779	2.96	10
1	10810	2.97	8
1	10837	2.98	8
1	10868	2.99	7
1	10899	3	6
1	10932	3.01	6
1	10975	3.02	8
1	10998	3.03	8
1	11033	3.04	4
1	11062	3.05	5
1	11101	3.06	4
1	11146	3.07	8
1	11187	3.08	6
1	11218	3.09	6
1	11253	3.1	2
1	11294	3.11	7
1	11325	3.12	8
1	11372	3.13	4
1	11399	3.14	5
1	11434	3.15	10
1	11477	3.16	8
1	11504	3.17	6
1	11549	3.18	8
1	11596	3.19	7
1	11643	3.2	8
1	11684	3.21	6
1	11713	3.22	9
1	11750	3.23	7
1	11779	3.24	8
1	11814	3.25	6
1	11853	3.26	5
1	11896	3.27	5
1	11929	3.28	7
1	11954	3.29	6
1	11985	3.3	6
1	12014	3.31	6
1	12057	3.32	6
1	12102	3.33	8
1	12143	3.34	7
1	12184	3.35	7
1	12217	3.36	6
1	12252	3.37	5
1	12295	3.38	7
1	12338	3.39	9
1	12381	3.4	5
1	12412	3.41	7
1	12447	3.42	8
1	12474	3.43	9
1	12513	3.44	5
1	12554	3.45	6
1	12589	3.46	10
1	12632	3.47	8
1	12677	3.48	6
1	12728	3.49	6
1	12755	3.5	4
1	12796	3.51	7
1	12839	3.52	6
1	12884	3.53	10
1	12917	3.54	6
1	12944	3.55	8
1	12969	3.56	5
1	13010	3.57	4
1	13037	3.58	8
1	13076	3.59	6
1	13119	3.6	4
1	13152	3.61	9
1	13185	3.62	3
1	13218	3.63	3
1	13251	3.64	7
1	13280	3.65	7
1	13311	3.66	7
1	13344	3.67	4
1	13391	3.68	7
1	13424	3.69	7
1	13467	3.7	7
1	13506	3.71	7
1	13529	3.72	9
1	13566	3.73	6
1	13605	3.74	5
1	13646	3.75	9
1	13667	3.76	7
1	13700	3.77	3
1	13729	3.78	7
1	13760	3.79	7
1	13803	3.8	8
1	13854	3.81	7
1	13885	3.82	4
1	13924	3.83	8
1	13951	3.84	5
1	13984	3.85	5
1	14027	3.86	2
1	14066	3.87	3
1	14105	3.88	1
1	14134	3.89	6
1	14183	3.9	7
1	14218	3.91	5
1	14261	3.92	5
1	14292	3.93	6
1	14327	3.94	3
1	14362	3.95	4
1	14407	3.96	6
1	14446	3.97	7
1	14477	3.98	8
1	14504	3.99	5
1	14537	4	4
1	14574	4.01	6
1	14609	4.02	6
1	14650	4.03	4
1	14685	4.04	8
1	14720	4.05	8
1	14753	4.06	3
1	14806	4.07	4
1	14837	4.08	9
1	14872	4.09	3
1	14907	4.1	9
1	14934	4.11	5
1	14973	4.12	7
1	15002	4.13	5
1	15035	4.14	6
1	15072	4.15	5
1	15097	4.16	9
1	15132	4.17	6
1	15181	4.18	7
1	15216	4.19	4
1	15255	4.2	7
1	15290	4.21	9
1	15331	4.22	4
1	15354	4.23	5
1	15381	4.24	5
1	15420	4.25	5
1	15457	4.26	4
1	15484	4.27	9
1	15517	4.28	6
1	15538	4.29	4
1	15575	4.3	6
1	15624	4.31	6
1	15655	4.32	9
1	15700	4.33	7
1	15741	4.34	8
1	15768	4.35	9
1	15801	4.36	7
1	15842	4.37	8
1	15879	4.38	3
1	15906	4.39	5
1	15939	4.4	3
1	15968	4.41	8
1	16007	4.42	5
1	16044	4.43	6
1	16073	4.44	9
1	16122	4.45	6
1	16149	4.46	9
1	16184	4.47	6
1	16215	4.48	8
1	16246	4.49	6
1	16283	4.5	6
1	16310	4.51	7
1	16339	4.52	7
1	16368	4.53	4
1	16395	4.54	6
1	16428	4.55	5
1	16475	4.56	5
1	16512	4.57	6
1	16555	4.58	7
1	16594	4.59	7
1	16633	4.6	7
1	16662	4.61	3
1	16695	4.62	6
1	16726	4.63	2
1	16763	4.64	5
1	16804	4.65	2
1	16841	4.66	3
1	16878	4.67	6
1	16921	4.68	6
1	16962	4.69	5
1	17001	4.7	4
1	17046	4.71	9
1	17077	4.72	4
1	17104	4.73	5
1	17141	4.74	6
1	17172	4.75	4
1	17195	4.76	3
1	17222	4.77	7
1	17253	4.78	6
1	17288	4.79	6
1	17333	4.8	6
1	17366	4.81	9
1	17393	4.82	7
1	17424	4.83	9
1	17455	4.84	6
1	17494	4.85	2
1	17535	4.86	10
1	17568	4.87	5
1	17607	4.88	8
1	17640	4.89	5
1	17673	4.9	8
1	17710	4.91	2
1	17745	4.92	8
1	17782	4.93	5
1	17813	4.94	8
1	17844	4.95	7
1	17877	4.96	6
1	17928	4.97	6
1	17955	4.98	10
1	18010	4.99	5
1	18049	5	9
1	18084	5.01	8
1	18107	5.02	4
1	18140	5.03	6
1	18171	5.04	9
1	18196	5.05	8
1	18227	5.06	5
1	18258	5.07	5
1	18281	5.08	7
1	18328	5.09	4
1	18357	5.1	9
1	18392	5.11	4
1	18431	5.12	4
1	18468	5.13	9
1	18495	5.14	8
1	18522	5.15	5
1	18551	5.16	6
1	18588	5.17	6
1	18623	5.18	7
1	18662	5.19	3
1	18695	5.2	6
1	18738	5.21	5
1	18773	5.22	5
1	18808	5.23	3
1	18839	5.24	7
1	18872	5.25	8
1	18901	5.26	7
1	18936	5.27	8
1	18965	5.28	4
1	19000	5.29	7
1	19035	5.3	5
1	19074	5.31	8
1	19113	5.32	8
1	19148	5.33	6
1	19191	5.34	4
1	19226	5.35	8
1	19261	5.36	10
1	19284	5.37	8
1	19325	5.38	5
1	19354	5.39	9
1	19393	5.4	6
1	19430	5.41	6
1	19467	5.42	5
1	19504	5.43	8
1	19535	5.44	6
1	19576	5.45	7
1	19627	5.46	4
1	19670	5.47	7
1	19713	5.48	4
1	19738	5.49	4
1	19791	5.5	7
1	19826	5.51	6
1	19851	5.52	4
1	19876	5.53	2
1	19925	5.54	10
1	19984	5.55	8
1	20007	5.56	7
1	20040	5.57	8
1	20069	5.58	3
1	20116	5.59	4
1	20151	5.6	8
1	20186	5.61	4
1	20221	5.62	6
1	20258	5.63	10
1	20293	5.64	7
1	20340	5.65	7
1	20377	5.66	7
1	20414	5.67	5
1	20451	5.68	6
1	20484	5.69	9
1	20527	5.7	6
1	20564	5.71	5
1	20599	5.72	9
1	20636	5.73	5
1	20671	5.74	8
1	20704	5.75	8
1	20739	5.76	7
1	20780	5.77	6
1	20817	5.78	5
1	20844	5.79	6
1	20895	5.8	5
1	20930	5.81	4
1	20963	5.82	8
1	20998	5.83	6
1	21037	5.84	3
1	21070	5.85	4
1	21099	5.86	7
1	21132	5.87	5
1	21155	5.88	8
1	21192	5.89	6
1	21219	5.9	2
1	21260	5.91	6
1	21297	5.92	9
1	21346	5.93	4
1	21381	5.94	4
1	21418	5.95	3
1	21443	5.96	4
1	21484	5.97	9
1	21505	5.98	8
1	21538	5.99	3
1	21577	6	9
1	21602	6.01	7
1	21655	6.02	5
1	21692	6.03	8
1	21733	6.04	7
1	21756	6.05	9
1	21805	6.06	5
1	21838	6.07	7
1	21875	6.08	7
1	21898	6.09	8
1	21935	6.1	6
1	21968	6.11	10
1	22019	6.12	3
1	22050	6.13	10
1	22077	6.14	7
1	22110	6.15	6
1	22145	6.16	6
1	22176	6.17	4
1	22215	6.18	7
1	22246	6.19	10
1	22269	6.2	5
1	22314	6.21	5
1	22365	6.22	8
1	22408	6.23	9
1	22445	6.24	8
1	22470	6.25	8
1	22505	6.26	6
1	22558	6.27	6
1	22595	6.28	4
1	22628	6.29	4
1	22655	6.3	7
1	22690	6.31	6
1	22737	6.32	7
1	22766	6.33	5
1	22801	6.34	5
1	22832	6.35	5
1	22865	6.36	3
1	22906	6.37	8
1	22937	6.38	6
1	22976	6.39	9
1	23003	6.4	6
1	23060	6.41	5
1	23089	6.42	5
1	23124	6.43	8
1	23145	6.44	8
1	23184	6.45	5
1	23217	6.46	4
1	23258	6.47	9
1	23301	6.48	6
1	23344	6.49	9
1	23377	6.5	8
1	23410	6.51	8
1	23437	6.52	10
1	23468	6.53	6
1	23503	6.54	6
1	23542	6.55	6
1	23589	6.56	8
1	23628	6.57	6
1	23677	6.58	6
1	23702	6.59	6
1	23733	6.6	7
1	23770	6.61	6
1	23809	6.62	6
1	23854	6.63	8
1	23897	6.64	9
1	23922	6.65	9
1	23963	6.66	4
1	23996	6.67	4
1	24027	6.68	9
1	24058	6.69	6
1	24085	6.7	7
1	24136	6.71	6
1	24177	6.72	9
1	24200	6.73	9
1	24229	6.74	5
1	24266	6.75	3
1	24309	6.76	7
1	24336	6.77	6
1	24371	6.78	5
1	24414	6.79	8
1	24443	6.8	9
1	24474	6.81	6
1	24499	6.82	4
1	24530	6.83	4
1	24561	6.84	4
1	24600	6.85	9
1	24633	6.86	5
1	24666	6.87	7
1	24697	6.88	5
1	24728	6.89	7
1	24757	6.9	6
1	24790	6.91	8
1	24839	6.92	8
1	24874	6.93	8
1	24909	6.94	5
1	24958	6.95	6
1	24993	6.96	8
1	25024	6.97	5
1	25051	6.98	4
1	25106	6.99	4
1	25147	7	8
1	25172	7.01	9
1	25207	7.02	3
1	25248	7.03	6
1	25277	7.04	5
1	25308	7.05	8
1	25345	7.06	6
1	25386	7.07	3
1	25433	7.08	6
1	25476	7.09	7
1	25509	7.1	6
1	25550	7.11	5
1	25579	7.12	6
1	25614	7.13	6
1	25647	7.14	5
1	25668	7.15	5
1	25695	7.16	4
1	25734	7.17	5
1	25777	7.18	7
1	25802	7.19	3
1	25849	7.2	8
1	25882	7.21	9
1	25917	7.22	7
1	25958	7.23	6
1	25999	7.24	8
1	26032	7.25	7
1	26067	7.26	3
1	26112	7.27	9
1	26135	7.28	4
1	26164	7.29	7
1	26205	7.3	7
1	26238	7.31	7
1	26273	7.32	7
1	26300	7.33	8
1	26327	7.34	8
1	26362	7.35	5
1	26409	7.36	8
1	26446	7.37	7
1	26485	7.38	6
1	26530	7.39	6
1	26561	7.4	10
1	26592	7.41	6
1	26625	7.42	6
1	26662	7.43	7
1	26701	7.44	8
1	26744	7.45	9
1	26785	7.46	8
1	26824	7.47	6
1	26865	7.48	8
1	26900	7.49	4
1	26937	7.5	4
1	26976	7.51	4
1	27017	7.52	7
1	27056	7.53	8
1	27091	7.54	6
1	27136	7.55	7
1	27181	7.56	5
1	27222	7.57	9
1	27261	7.58	5
1	27300	7.59	6
1	27325	7.6	5
1	27362	7.61	8
1	27399	7.62	5
1	27432	7.63	6
1	27477	7.64	8
1	27518	7.65	7
1	27559	7.66	4
1	27590	7.67	5
1	27631	7.68	9
1	27660	7.69	6
1	27709	7.7	6
1	27738	7.71	6
1	27777	7.72	7
1	27808	7.73	7
1	27851	7.74	7
1	27904	7.75	5
1	27937	7.76	6
1	27968	7.77	1
1	27997	7.78	7
1	28036	7.79	6
1	28067	7.8	7
1	28096	7.81	8
1	28139	7.82	6
1	28178	7.83	7
1	28225	7.84	3
1	28268	7.85	6
1	28313	7.86	6
1	28354	7.87	8
1	28391	7.88	5
1	28424	7.89	3
1	28465	7.9	4
1	28498	7.91	5
1	28535	7.92	3
1	28566	7.93	4
1	28599	7.94	6
1	28632	7.95	4
1	28673	7.96	3
1	28704	7.97	2
1	28735	7.98	5
1	28778	7.99	4
1	28821	8	5
1	28856	8.01	4
1	28889	8.02	4
1	28924	8.03	3
1	28957	8.04	5
1	29000	8.05	5
1	29037	8.06	6
1	29072	8.07	6
1	29099	8.08	5
1	29134	8.09	4
1	29157	8.1	5
1	29192	8.11	4
1	29237	8.12	9
1	29274	8.13	6
1	29307	8.14	5
1	29334	8.15	3
1	29377	8.16	5
1	29414	8.17	9
1	29441	8.18	7
1	29482	8.19	5
1	29525	8.2	4
1	29548	8.21	8
1	29585	8.22	1
1	29626	8.23	4
1	29667	8.24	9
1	29692	8.25	7
1	29725	8.26	4
1	29772	8.27	5
1	29819	8.28	4
1	29856	8.29	5
1	29887	8.3	8
1	29920	8.31	7
1	29967	8.32	5
1	30000	8.33	9
1	30025	8.34	6
1	30064	8.35	6
1	30101	8.36	10
1	30144	8.37	9
1	30183	8.38	8
1	30218	8.39	8
1	30259	8.4	5
1	30298	8.41	6
1	30331	8.42	8
1	30376	8.43	7
1	30417	8.44	8
1	30462	8.45	9
1	30501	8.46	8
1	30542	8.47	6
1	30587	8.48	9
1	30622	8.49	8
1	30667	8.5	9
1	30694	8.51	8
1	30737	8.52	3
1	30772	8.53	6
1	30807	8.54	7
1	30844	8.55	6
1	30879	8.56	8
1	30914	8.57	8
1	30951	8.58	5
1	30984	8.59	5
1	31023	8.6	7
1	31058	8.61	4
1	31093	8.62	8
1	31126	8.63	8
1	31153	8.64	7
1	31186	8.65	7
1	31229	8.66	6
1	31274	8.67	6
1	31327	8.68	4
1	31368	8.69	9
1	31399	8.7	9
1	31446	8.71	6
1	31487	8.72	7
1	31544	8.73	4
1	31575	8.74	9
1	31604	8.75	7
1	31639	8.76	4
1	31670	8.77	6
1	31715	8.78	7
1	31756	8.79	5
1	31793	8.8	8
1	31826	8.81	5
1	31865	8.82	9
1	31892	8.83	6
1	31921	8.84	4
1	31956	8.85	10
1	31997	8.86	7
1	32044	8.87	8
1	32073	8.88	7
1	32114	8.89	6
1	32147	8.9	3
1	32180	8.91	6
1	32213	8.92	8
1	32242	8.93	6
1	32283	8.94	6
1	32318	8.95	7
1	32351	8.96	5
1	32376	8.97	8
1	32411	8.98	6
1	32448	8.99	8
1	32487	9	6
1	32522	9.01	8
1	32559	9.02	8
1	32606	9.03	4
1	32643	9.04	8
1	32680	9.05	6
1	32709	9.06	6
1	32738	9.07	7
1	32771	9.08	6
1	32812	9.09	8
1	32857	9.1	7
1	32880	9.11	1
1	32917	9.12	5
1	32946	9.13	3
1	32981	9.14	6
1	33010	9.15	9
1	33053	9.16	7
1	33084	9.17	7
1	33123	9.18	6
1	33170	9.19	5
1	33195	9.2	5
1	33240	9.21	6
1	33277	9.22	4
1	33304	9.23	6
1	33351	9.24	5
1	33388	9.25	10
1	33419	9.26	4
1	33464	9.27	10
1	33495	9.28	7
1	33524	9.29	8
1	33573	9.3	8
1	33602	9.31	4
1	33633	9.32	9
1	33662	9.33	3
1	33699	9.34	7
1	33718	9.35	5
1	33747	9.36	5
1	33788	9.37	7
1	33817	9.38	7
1	33856	9.39	7
1	33893	9.4	5
1	33922	9.41	7
1	33971	9.42	7
1	34004	9.43	8
1	34047	9.44	9
1	34082	9.45	5
1	34121	9.46	8
1	34158	9.47	8
1	34189	9.48	7
1	34226	9.49	4
1	34257	9.5	8
1	34292	9.51	5
1	34333	9.52	8
1	34378	9.53	5
1	34421	9.54	3
1	34466	9.55	6
1	34503	9.56	4
1	34548	9.57	5
1	34581	9.58	3
1	34608	9.59	5
1	34647	9.6	6
1	34684	9.61	8
1	34727	9.62	7
1	34754	9.63	9
1	34791	9.64	5
1	34828	9.65	4
1	34863	9.66	7
1	34896	9.67	5
1	34925	9.68	2
1	34946	9.69	4
1	34983	9.7	2
1	35020	9.71	3
1	35065	9.72	10
1	35102	9.73	6
1	35151	9.74	9
1	35186	9.75	10
1	35217	9.76	8
1	35246	9.77	7
1	35277	9.78	7
1	35320	9.79	6
1	35369	9.8	7
1	35396	9.81	6
1	35433	9.82	6
1	35468	9.83	5
1	35509	9.84	5
1	35538	9.85	7
1	35567	9.86	5
1	35592	9.87	6
1	35625	9.88	3
1	35660	9.89	5
1	35687	9.9	7
1	35730	9.91	4
1	35763	9.92	8
1	35788	9.93	8
1	35815	9.94	7
1	35844	9.95	3
1	35871	9.96	3
1	35898	9.97	6
1	35935	9.98	7
1	35962	9.99	5
1	36003	10	6
2	99	0.02	0.02
2	99	0.02	0.013597740873
2	99	0.02	0.02
2	99	0.02	0.019413196496
2	99	0.02	0.02
2	99	0.02	0.010147937238
2	99	0.02	0.02
2	99	0.02	0.02
2	99	0.02	0.017249876734
2	99	0.02	0.014970913285
2	99	0.02	0.02
2	99	0.02	0.014279677621
2	99	0.02	0.02
2	99	0.02	0.013261041734
2	99	0.02	0.02
2	99	0.02	0.02
2	99	0.02	0.015403314602
2	99	0.02	0.014617546143
2	99	0.02	0.014374893345
2	99	0.02	0.013118198747
2	99	0.02	0.011175743714
2	146	0.03	0.018768768743
2	146	0.03	0.011619130711
2	146	0.03	0.011283704158
2	146	0.03	0.011125546743
2	146	0.03	0.015341895769
2	146	0.03	0.015475989315
2	146	0.03	0.03
2	146	0.03	0.028965245908
2	146	0.03	0.028813838051
2	146	0.03	0.027740233659
2	146	0.03	0.027408399829
2	146	0.03	0.025550492769
2	146	0.03	0.025127781428
2	146	0.03	0.020477655972
2	146	0.03	0.016983185252
2	146	0.03	0.016788992209
2	173	0.04	0.029396966696
2	173	0.04	0.024882005389
2	173	0.04	0.022481242242
2	173	0.04	0.018190710789
2	173	0.04	0.013340710422
2	173	0.04	0.010957932134
2	173	0.04	0.02212455323
2	173	0.04	0.028564501502
2	173	0.04	0.018951834355
2	173	0.04	0.014306802014
2	173	0.04	0.018357279445
2	173	0.04	0.01892895263
2	204	0.05	0.025175452613
2	204	0.05	0.011564310789
2	204	0.05	0.033968755266
2	204	0.05	0.029850612964
2	204	0.05	0.022783509408
2	204	0.05	0.020775712425
2	204	0.05	0.010819165156
2	204	0.05	0.01900195629
2	204	0.05	0.017770055669
2	204	0.05	0.021380343802
2	204	0.05	0.017452535546
2	204	0.05	0.014304565252
2	204	0.05	0.02635716516
2	249	0.06	0.017491148417
2	249	0.06	0.016717148991
2	249	0.06	0.035687060173
2	249	0.06	0.023562584228
2	249	0.06	0.018842758812
2	249	0.06	0.011063675357
2	249	0.06	0.010876563593
2	249	0.06	0.036992227909
2	249	0.06	0.030698733856
2	249	0.06	0.030532094281
2	249	0.06	0.016252124636
2	292	0.07	0.018240226226
2	292	0.07	0.018736633922
2	292	0.07	0.012118264907
2	292	0.07	0.018609094046
2	292	0.07	0.01354604819
2	292	0.07	0.024419827344
2	331	0.08	0.028836862967
2	331	0.08	0.024662849974
2	331	0.08	0.019767563224
2	331	0.08	0.017161971305
2	331	0.08	0.02069600657
2	331	0.08	0.05167469169
2	331	0.08	0.033790410887
2	331	0.08	0.023788440846
2	331	0.08	0.023875216142
2	331	0.08	0.015393214764
2	331	0.08	0.045017683353
2	384	0.09	0.027208617141
2	384	0.09	0.026583193909
2	384	0.09	0.015146956776
2	384	0.09	0.011404826184
2	384	0.09	0.029451384193
2	384	0.09	0.025702550801
2	384	0.09	0.025175399645
2	384	0.09	0.024445234413
2	384	0.09	0.019721947226
2	384	0.09	0.037891145752
2	384	0.09	0.017358294166
2	384	0.09	0.036366999529
2	384	0.09	0.0288418472
2	384	0.09	0.023991636821
2	384	0.09	0.020394090943
2	435	0.1	0.018082536799
2	435	0.1	0.014928624018
2	435	0.1	0.012704917234
2	435	0.1	0.019882516452
2	435	0.1	0.013078607397
2	435	0.1	0.0109816173
2	435	0.1	0.057020720252
2	435	0.1	0.052749075912
2	435	0.1	0.049159195602
2	435	0.1	0.046123538489
2	435	0.1	0.043363390207
2	435	0.1	0.026975377704
2	435	0.1	0.013758191152
2	435	0.1	0.010678829864
2	435	0.1	0.036486045266
2	435	0.1	0.034687097819
2	435	0.1	0.029400332973
2	435	0.1	0.018413427214
2	435	0.1	0.035322535716
2	460	0.11	0.027960576037
2	460	0.11	0.022062038904
2	460	0.11	0.021851071356
2	460	0.11	0.011554000012
2	460	0.11	0.010446394052
2	460	0.11	0.038028970429
2	460	0.11	0.033138907333
2	460	0.11	0.024314695878
2	460	0.11	0.039620264486
2	460	0.11	0.033813337398
2	460	0.11	0.018961053971
2	460	0.11	0.036794484764
2	460	0.11	0.027446143543
2	460	0.11	0.022733755109
2	460	0.11	0.022562121145
2	460	0.11	0.017292992906
2	460	0.11	0.010029114779
2	460	0.11	0.013297232945
2	460	0.11	0.015346754083
2	460	0.11	0.014792215639
2	460	0.11	0.015522623423
2	491	0.12	0.024417936717
2	491	0.12	0.023815300867
2	491	0.12	0.022040385657
2	491	0.12	0.065381832613
2	491	0.12	0.063563068386
2	491	0.12	0.054869133824
2	491	0.12	0.045431411933
2	516	0.13	0.0506096559
2	516	0.13	0.044395345289
2	516	0.13	0.031233884619
2	516	0.13	0.028782178718
2	516	0.13	0.018949836165
2	516	0.13	0.03366750859
2	551	0.14	0.034787339015
2	551	0.14	0.03158863496
2	551	0.14	0.027997678767
2	551	0.14	0.029626308095
2	551	0.14	0.025823031737
2	551	0.14	0.041979547082
2	551	0.14	0.023991530289
2	551	0.14	0.018756426118
2	582	0.15	0.052118227514
2	582	0.15	0.015032212061
2	582	0.15	0.051196573975
2	582	0.15	0.05020822791
2	582	0.15	0.049488823988
2	582	0.15	0.040724896086
2	582	0.15	0.030899302074
2	582	0.15	0.072389704472
2	582	0.15	0.067014057887
2	623	0.16	0.027089317677
2	623	0.16	0.047175338562
2	623	0.16	0.033466690594
2	623	0.16	0.01532147958
2	623	0.16	0.013652968278
2	623	0.16	0.039047333166
2	623	0.16	0.024280824786
2	623	0.16	0.022531788968
2	623	0.16	0.020825527361
2	668	0.17	0.054526510585
2	668	0.17	0.044160159348
2	668	0.17	0.035522010085
2	668	0.17	0.031877109172
2	668	0.17	0.029747740265
2	668	0.17	0.027933763493
2	668	0.17	0.016309066049
2	668	0.17	0.010998895224
2	668	0.17	0.045719788637
2	668	0.17	0.034795621246
2	668	0.17	0.028356828966
2	668	0.17	0.062541386113
2	668	0.17	0.056311402666
2	668	0.17	0.041690996551
2	705	0.18	0.055311083082
2	705	0.18	0.043457845085
2	705	0.18	0.029374729903
2	705	0.18	0.024005628501
2	705	0.18	0.027941851353
2	705	0.18	0.047999621846
2	705	0.18	0.035675462351
2	705	0.18	0.0204465248
2	705	0.18	0.095783258187
2	705	0.18	0.095275232203
2	705	0.18	0.044423335584
2	705	0.18	0.027377982379
2	705	0.18	0.012931841447
2	738	0.19	0.04206603356
2	738	0.19	0.036996340615
2	738	0.19	0.034161127761
2	738	0.19	0.01672539705
2	738	0.19	0.015459841549
2	738	0.19	0.028408196123
2	738	0.19	0.027379914749
2	738	0.19	0.019202778847
2	738	0.19	0.013987070173
2	738	0.19	0.010469982369
2	738	0.19	0.036428407313
2	765	0.2	0.037093019032
2	765	0.2	0.036775453851
2	765	0.2	0.035537812248
2	765	0.2	0.112395920864
2	765	0.2	0.103986436739
2	765	0.2	0.101388092946
2	765	0.2	0.09022896231
2	765	0.2	0.084254705023
2	765	0.2	0.067218202555
2	765	0.2	0.059184533648
2	765	0.2	0.046889950669
2	765	0.2	0.034494993213
2	765	0.2	0.031999766058
2	765	0.2	0.058116942545
2	765	0.2	0.02948438384
2	790	0.21	0.036336338198
2	790	0.21	0.027886784852
2	790	0.21	0.060478150169
2	790	0.21	0.059725503048
2	790	0.21	0.054139739365
2	790	0.21	0.049279881775
2	790	0.21	0.041754277547
2	790	0.21	0.039163474397
2	790	0.21	0.024737044703
2	790	0.21	0.010202275969
2	790	0.21	0.049438428115
2	790	0.21	0.048826630377
2	790	0.21	0.030992459461
2	790	0.21	0.024655244774
2	790	0.21	0.042528995364
2	790	0.21	0.040150299076
2	790	0.21	0.029888276892
2	790	0.21	0.02941255689
2	790	0.21	0.028301601031
2	790	0.21	0.053923781058
2	790	0.21	0.040120330702
2	790	0.21	0.02124272273
2	815	0.22	0.022154826394
2	815	0.22	0.017065741346
2	815	0.22	0.013741545974
2	815	0.22	0.010369824175
2	815	0.22	0.047830244783
2	815	0.22	0.045259997364
2	815	0.22	0.020189322458
2	815	0.22	0.016856849293
2	815	0.22	0.016321975014
2	815	0.22	0.037609543779
2	815	0.22	0.011916885774
2	815	0.22	0.061956722332
2	815	0.22	0.055163222938
2	815	0.22	0.050886006122
2	815	0.22	0.040390330483
2	815	0.22	0.034975044058
2	815	0.22	0.021061796205
2	815	0.22	0.041696049247
2	815	0.22	0.037121238818
2	815	0.22	0.035149962867
2	815	0.22	0.028924489676
2	815	0.22	0.026511917535
2	815	0.22	0.025139252518
2	815	0.22	0.015718592709
2	815	0.22	0.029751762818
2	848	0.23	0.012701982479
2	848	0.23	0.01202125669
2	848	0.23	0.016776393487
2	848	0.23	0.012330808456
2	848	0.23	0.019167126885
2	883	0.24	0.01907955759
2	883	0.24	0.016782125182
2	883	0.24	0.013222976477
2	883	0.24	0.012425462708
2	883	0.24	0.011223835014
2	883	0.24	0.011720016048
2	883	0.24	0.012832219371
2	883	0.24	0.018357163537
2	918	0.25	0.018688832152
2	918	0.25	0.015720767504
2	918	0.25	0.014385336448
2	918	0.25	0.012835006166
2	918	0.25	0.013717250961
2	918	0.25	0.018707104041
2	918	0.25	0.014355039584
2	918	0.25	0.018666572062
2	918	0.25	0.032987864664
2	918	0.25	0.031611742722
2	918	0.25	0.01687979335
2	918	0.25	0.029750747073
2	918	0.25	0.023164950398
2	918	0.25	0.012787768808
2	918	0.25	0.021800238614
2	918	0.25	0.015614682185
2	918	0.25	0.010122688294
2	949	0.26	0.013747407248
2	949	0.26	0.012355939842
2	949	0.26	0.010883068135
2	949	0.26	0.014622905027
2	949	0.26	0.011888201863
2	949	0.26	0.018165280657
2	949	0.26	0.014498112406
2	949	0.26	0.012663413163
2	949	0.26	0.010461912831
2	949	0.26	0.012151165068
2	949	0.26	0.010614911005
2	949	0.26	0.012310038227
2	978	0.27	0.017414904565
2	978	0.27	0.015235852913
2	978	0.27	0.019987372523
2	978	0.27	0.014717452273
2	978	0.27	0.017763525971
2	978	0.27	0.015056776713
2	978	0.27	0.019269162542
2	978	0.27	0.011014799071
2	978	0.27	0.01080792417
2	978	0.27	0.010034677496
2	1013	0.28	0.010884740587
2	1013	0.28	0.018657878411
2	1013	0.28	0.01504903538
2	1013	0.28	0.015487002294
2	1013	0.28	0.019266108861
2	1013	0.28	0.0173198544
2	1013	0.28	0.014289993083
2	1013	0.28	0.011267353153
2	1013	0.28	0.018234330462
2	1048	0.29	0.018264541979
2	1048	0.29	0.016158429907
2	1048	0.29	0.011468464507
2	1048	0.29	0.014877991363
2	1048	0.29	0.018260424636
2	1048	0.29	0.013752026246
2	1048	0.29	0.015016625133
2	1048	0.29	0.010399993697
2	1048	0.29	0.014442057686
2	1048	0.29	0.013638482913
2	1048	0.29	0.013887060962
2	1048	0.29	0.013975368657
2	1089	0.3	0.017632183677
2	1089	0.3	0.016738836689
2	1089	0.3	0.01211452319
2	1089	0.3	0.016636155011
2	1089	0.3	0.011122220215
2	1089	0.3	0.018814015091
2	1089	0.3	0.01671440376
2	1089	0.3	0.017517299989
2	1089	0.3	0.018930343926
2	1089	0.3	0.01473747634
2	1089	0.3	0.0113757633
2	1089	0.3	0.011775183528
2	1124	0.31	0.011230317748
2	1124	0.31	0.011476778632
2	1124	0.31	0.015623303678
2	1124	0.31	0.014424377236
2	1124	0.31	0.010894656235
2	1124	0.31	0.015591107303
2	1124	0.31	0.015218588785
2	1124	0.31	0.015039840118
2	1124	0.31	0.013027739533
2	1124	0.31	0.010120600713
2	1124	0.31	0.018467898848
2	1165	0.32	0.01063070778
2	1165	0.32	0.021187715763
2	1165	0.32	0.016413724935
2	1165	0.32	0.010603637386
2	1165	0.32	0.010089210776
2	1165	0.32	0.029379331618
2	1165	0.32	0.025157031149
2	1165	0.32	0.024699035416
2	1165	0.32	0.013837775966
2	1165	0.32	0.015411979503
2	1202	0.33	0.019262849208
2	1202	0.33	0.029535346115
2	1202	0.33	0.024936253884
2	1202	0.33	0.021259245189
2	1202	0.33	0.023779143248
2	1253	0.34	0.012148123745
2	1253	0.34	0.026505355283
2	1253	0.34	0.023581621208
2	1253	0.34	0.021666478989
2	1253	0.34	0.020590717675
2	1253	0.34	0.01970899179
2	1253	0.34	0.015162281932
2	1253	0.34	0.028041499752
2	1253	0.34	0.023319515649
2	1253	0.34	0.018958021597
2	1253	0.34	0.029822663757
2	1253	0.34	0.012572675464
2	1288	0.35	0.022025067361
2	1288	0.35	0.014310949274
2	1288	0.35	0.014208248946
2	1288	0.35	0.01420228256
2	1288	0.35	0.011633612903
2	1288	0.35	0.01901892926
2	1288	0.35	0.041344017773
2	1288	0.35	0.017302463797
2	1288	0.35	0.017410809129
2	1327	0.36	0.033448240411
2	1327	0.36	0.030670431028
2	1327	0.36	0.026608628734
2	1366	0.37	0.034586783231
2	1366	0.37	0.02936294773
2	1366	0.37	0.016676997533
2	1366	0.37	0.01303788468
2	1366	0.37	0.054212851367
2	1366	0.37	0.053576207751
2	1366	0.37	0.047384947109
2	1366	0.37	0.040381608545
2	1366	0.37	0.027949994008
2	1366	0.37	0.023555895596
2	1366	0.37	0.019588950988
2	1366	0.37	0.014958662653
2	1366	0.37	0.038840610258
2	1366	0.37	0.026016212503
2	1366	0.37	0.015536817484
2	1366	0.37	0.029041412044
2	1366	0.37	0.031331674479
2	1366	0.37	0.029912804704
2	1366	0.37	0.020809775559
2	1366	0.37	0.020430558409
2	1366	0.37	0.018835724915
2	1366	0.37	0.048269815723
2	1366	0.37	0.040598206927
2	1417	0.38	0.070728642887
2	1417	0.38	0.065513899218
2	1417	0.38	0.064945797746
2	1417	0.38	0.062276665932
2	1417	0.38	0.061648073474
2	1417	0.38	0.060023577967
2	1417	0.38	0.055436903083
2	1417	0.38	0.024501555652
2	1417	0.38	0.02334857702
2	1417	0.38	0.015300965487
2	1417	0.38	0.015297134045
2	1417	0.38	0.045973183608
2	1417	0.38	0.020982846418
2	1417	0.38	0.018527106029
2	1417	0.38	0.014301701124
2	1417	0.38	0.040248192918
2	1417	0.38	0.018266203409
2	1417	0.38	0.049229578284
2	1442	0.39	0.022718366602
2	1442	0.39	0.021145001685
2	1442	0.39	0.020942251772
2	1442	0.39	0.013376622383
2	1442	0.39	0.0557218428
2	1442	0.39	0.053494937152
2	1442	0.39	0.049617680774
2	1442	0.39	0.047052157104
2	1473	0.4	0.029548092659
2	1473	0.4	0.025227884689
2	1473	0.4	0.015432951687
2	1473	0.4	0.029749410729
2	1473	0.4	0.029405893064
2	1473	0.4	0.024876756751
2	1473	0.4	0.02436863026
2	1473	0.4	0.037940431363
2	1473	0.4	0.066651296574
2	1473	0.4	0.065586502971
2	1504	0.41	0.073248695181
2	1504	0.41	0.068296237513
2	1504	0.41	0.061391140273
2	1504	0.41	0.053751106995
2	1504	0.41	0.05168391576
2	1504	0.41	0.040245584863
2	1504	0.41	0.039700468544
2	1504	0.41	0.03654113299
2	1504	0.41	0.030965122711
2	1504	0.41	0.025705254445
2	1504	0.41	0.017693607141
2	1504	0.41	0.017349766568
2	1504	0.41	0.038236577258
2	1504	0.41	0.038202372715
2	1504	0.41	0.037354351716
2	1504	0.41	0.035089765058
2	1504	0.41	0.022174312822
2	1504	0.41	0.057558771344
2	1545	0.42	0.027747987669
2	1545	0.42	0.023577245988
2	1545	0.42	0.010847368554
2	1545	0.42	0.052962526928
2	1545	0.42	0.051706582926
2	1545	0.42	0.039979251031
2	1545	0.42	0.029334087522
2	1545	0.42	0.014456745875
2	1545	0.42	0.042390677174
2	1545	0.42	0.014005458907
2	1545	0.42	0.04157564779
2	1545	0.42	0.040515095035
2	1545	0.42	0.034413488762
2	1545	0.42	0.029399210136
2	1545	0.42	0.026145287109
2	1545	0.42	0.01000882295
2	1545	0.42	0.083473753649
2	1545	0.42	0.060707058717
2	1545	0.42	0.052577001443
2	1545	0.42	0.042891166804
2	1545	0.42	0.033514572864
2	1545	0.42	0.01181181467
2	1545	0.42	0.016611310331
2	1545	0.42	0.015717227174
2	1545	0.42	0.010993742623
2	1545	0.42	0.063837301272
2	1576	0.43	0.017519213987
2	1576	0.43	0.010834493131
2	1576	0.43	0.014403969454
2	1576	0.43	0.015098000421
2	1576	0.43	0.014662561953
2	1576	0.43	0.012671420785
2	1576	0.43	0.019045534289
2	1576	0.43	0.017347081507
2	1576	0.43	0.045952930632
2	1576	0.43	0.031066781521
2	1576	0.43	0.017918311957
2	1615	0.44	0.023753920266
2	1615	0.44	0.021431847266
2	1615	0.44	0.021245510128
2	1615	0.44	0.017854228647
2	1615	0.44	0.013573024454
2	1615	0.44	0.018880603583
2	1615	0.44	0.071224529002
2	1615	0.44	0.064527158929
2	1615	0.44	0.063943412028
2	1615	0.44	0.049337402901
2	1615	0.44	0.047822457108
2	1615	0.44	0.033720255887
2	1615	0.44	0.019550714741
2	1615	0.44	0.019082283738
2	1615	0.44	0.019178781972
2	1615	0.44	0.010203807314
2	1615	0.44	0.010849698243
2	1615	0.44	0.032050771637
2	1615	0.44	0.02711582137
2	1642	0.45	0.021861332425
2	1642	0.45	0.011227336153
2	1642	0.45	0.032241539188
2	1642	0.45	0.01349324294
2	1642	0.45	0.011383769059
2	1642	0.45	0.013505150437
2	1642	0.45	0.019043335581
2	1642	0.45	0.014525047393
2	1642	0.45	0.019461814483
2	1642	0.45	0.013907583098
2	1642	0.45	0.012065839451
2	1642	0.45	0.015662905856
2	1642	0.45	0.012917517954
2	1642	0.45	0.018808013166
2	1642	0.45	0.014483754134
2	1642	0.45	0.020933121358
2	1642	0.45	0.036896589717
2	1673	0.46	0.010354677994
2	1673	0.46	0.014665187591
2	1673	0.46	0.019761677039
2	1673	0.46	0.017458204846
2	1673	0.46	0.012968429314
2	1673	0.46	0.010476694984
2	1673	0.46	0.018484266053
2	1673	0.46	0.014150924173
2	1673	0.46	0.025900008834
2	1702	0.47	0.01988770952
2	1702	0.47	0.013174883402
2	1702	0.47	0.013296865323
2	1702	0.47	0.011775083755
2	1702	0.47	0.013927401887
2	1702	0.47	0.014833555973
2	1702	0.47	0.016006000445
2	1702	0.47	0.015029271939
2	1702	0.47	0.016237276803
2	1739	0.48	0.01566934089
2	1739	0.48	0.017270294658
2	1739	0.48	0.016746198287
2	1739	0.48	0.013345784304
2	1739	0.48	0.012989937418
2	1739	0.48	0.018271756924
2	1739	0.48	0.017190353953
2	1739	0.48	0.01658465573
2	1739	0.48	0.020027269755
2	1739	0.48	0.013668877246
2	1776	0.49	0.014985731137
2	1776	0.49	0.01313866795
2	1776	0.49	0.015172181745
2	1776	0.49	0.014469565799
2	1776	0.49	0.012496789312
2	1776	0.49	0.014047729984
2	1776	0.49	0.018727911104
2	1776	0.49	0.010798888386
2	1776	0.49	0.014003173771
2	1776	0.49	0.019112371107
2	1776	0.49	0.016566873029
2	1776	0.49	0.019071712489
2	1776	0.49	0.018263225875
2	1823	0.5	0.016365751506
2	1823	0.5	0.016489296773
2	1823	0.5	0.012191950786
2	1823	0.5	0.014083520617
2	1823	0.5	0.016371727903
2	1823	0.5	0.010897087585
2	1823	0.5	0.017120583755
2	1823	0.5	0.014018033527
2	1823	0.5	0.012440171794
2	1823	0.5	0.019298216624
2	1823	0.5	0.013030499495
2	1823	0.5	0.016553923891
2	1823	0.5	0.010033802505
2	1856	0.51	0.019593522931
2	1856	0.51	0.015339429283
2	1856	0.51	0.015322406699
2	1856	0.51	0.012797578425
2	1856	0.51	0.019271511021
2	1856	0.51	0.016116734143
2	1856	0.51	0.015672573384
2	1856	0.51	0.012828298812
2	1856	0.51	0.011389546124
2	1856	0.51	0.016905176635
2	1856	0.51	0.016043299082
2	1856	0.51	0.014857063156
2	1856	0.51	0.012974256699
2	1856	0.51	0.011020981247
2	1856	0.51	0.01928375544
2	1856	0.51	0.014759736358
2	1856	0.51	0.010557772365
2	1881	0.52	0.012480744793
2	1881	0.52	0.017410967214
2	1881	0.52	0.01698817342
2	1881	0.52	0.020138416177
2	1881	0.52	0.015418764678
2	1881	0.52	0.011397746238
2	1881	0.52	0.017771286246
2	1881	0.52	0.014265345443
2	1930	0.53	0.028180839828
2	1930	0.53	0.020702274295
2	1930	0.53	0.025812617432
2	1930	0.53	0.011560991616
2	1930	0.53	0.012046665726
2	1930	0.53	0.016242010439
2	1930	0.53	0.014960516
2	1930	0.53	0.012438532997
2	1930	0.53	0.022435953468
2	1930	0.53	0.013555344919
2	1930	0.53	0.01640785833
2	1967	0.54	0.012505561326
2	1967	0.54	0.018686564542
2	1967	0.54	0.017427764588
2	1967	0.54	0.011799202587
2	1967	0.54	0.012418230731
2	1967	0.54	0.019223479764
2	1967	0.54	0.017029839951
2	1967	0.54	0.010962054469
2	1967	0.54	0.018151923127
2	1967	0.54	0.017458111285
2	1967	0.54	0.018586250008
2	1967	0.54	0.018507004213
2	1967	0.54	0.012339269469
2	1967	0.54	0.012018013008
2	2008	0.55	0.011703906085
2	2008	0.55	0.01081466969
2	2008	0.55	0.019815584667
2	2008	0.55	0.015574632417
2	2008	0.55	0.021598231411
2	2008	0.55	0.017561309484
2	2008	0.55	0.017056423077
2	2008	0.55	0.01024565304
2	2037	0.56	0.031396699495
2	2037	0.56	0.024581032632
2	2037	0.56	0.01849169982
2	2037	0.56	0.018201224351
2	2037	0.56	0.015515894288
2	2037	0.56	0.010687102354
2	2037	0.56	0.019290219234
2	2037	0.56	0.024253584841
2	2037	0.56	0.02085148616
2	2037	0.56	0.020653546038
2	2037	0.56	0.037082245246
2	2070	0.57	0.026030375721
2	2070	0.57	0.021760091624
2	2070	0.57	0.018577301897
2	2070	0.57	0.024940770569
2	2070	0.57	0.013146489983
2	2070	0.57	0.012728009634
2	2070	0.57	0.024016137701
2	2070	0.57	0.022825544036
2	2070	0.57	0.022485493075
2	2070	0.57	0.030236628719
2	2070	0.57	0.023787305003
2	2070	0.57	0.046679841649
2	2070	0.57	0.043794150335
2	2097	0.58	0.02229558888
2	2097	0.58	0.013702781363
2	2097	0.58	0.012223689061
2	2097	0.58	0.011532320792
2	2097	0.58	0.029965572089
2	2097	0.58	0.019603648186
2	2097	0.58	0.015616793202
2	2097	0.58	0.015268755057
2	2097	0.58	0.017731022084
2	2097	0.58	0.011523125471
2	2097	0.58	0.017007017858
2	2097	0.58	0.016024889912
2	2097	0.58	0.04565131942
2	2097	0.58	0.039663665614
2	2138	0.59	0.016897620454
2	2138	0.59	0.015528388754
2	2138	0.59	0.01978246476
2	2138	0.59	0.011885453046
2	2138	0.59	0.010069167531
2	2138	0.59	0.019528522344
2	2138	0.59	0.042317352155
2	2138	0.59	0.04128854583
2	2138	0.59	0.039575600865
2	2173	0.6	0.0174074542
2	2173	0.6	0.013390519964
2	2173	0.6	0.017801866755
2	2173	0.6	0.014417474751
2	2173	0.6	0.014114722004
2	2173	0.6	0.017699306891
2	2173	0.6	0.017197375912
2	2173	0.6	0.015715393501
2	2173	0.6	0.015535531566
2	2173	0.6	0.012649384463
2	2173	0.6	0.014291981447
2	2173	0.6	0.046218935269
2	2210	0.61	0.015993915054
2	2210	0.61	0.010063874253
2	2210	0.61	0.019658713232
2	2210	0.61	0.019529555386
2	2210	0.61	0.028007241619
2	2210	0.61	0.016327730814
2	2210	0.61	0.011878841651
2	2210	0.61	0.014917542225
2	2241	0.62	0.018740505528
2	2241	0.62	0.025226698285
2	2241	0.62	0.022463847395
2	2241	0.62	0.018532732196
2	2241	0.62	0.015815597969
2	2241	0.62	0.014946137197
2	2241	0.62	0.012180745725
2	2241	0.62	0.019953452142
2	2241	0.62	0.014578232623
2	2241	0.62	0.017189308529
2	2241	0.62	0.017083955379
2	2241	0.62	0.01685974168
2	2241	0.62	0.014141166261
2	2241	0.62	0.010293296224
2	2241	0.62	0.032801441037
2	2241	0.62	0.024724156864
2	2280	0.63	0.019635487807
2	2280	0.63	0.012592684294
2	2280	0.63	0.012232736692
2	2280	0.63	0.02345487263
2	2280	0.63	0.019664713665
2	2280	0.63	0.015073514781
2	2280	0.63	0.010820078642
2	2280	0.63	0.012222896238
2	2280	0.63	0.010866079357
2	2280	0.63	0.017294509996
2	2280	0.63	0.076170331583
2	2280	0.63	0.070045873022
2	2280	0.63	0.069992139213
2	2280	0.63	0.057809617517
2	2280	0.63	0.053394391201
2	2280	0.63	0.048145055674
2	2321	0.64	0.019887139817
2	2321	0.64	0.014645078153
2	2321	0.64	0.011973994651
2	2321	0.64	0.012063079433
2	2321	0.64	0.019453220847
2	2321	0.64	0.015692396692
2	2321	0.64	0.019782877517
2	2321	0.64	0.010696897714
2	2321	0.64	0.017585620946
2	2356	0.65	0.015854434119
2	2356	0.65	0.011498342763
2	2356	0.65	0.012873033514
2	2356	0.65	0.010531330799
2	2356	0.65	0.020296117766
2	2356	0.65	0.019935174591
2	2356	0.65	0.014480213396
2	2356	0.65	0.013736437157
2	2356	0.65	0.011373891261
2	2356	0.65	0.012648536999
2	2356	0.65	0.019823006973
2	2356	0.65	0.018814651697
2	2356	0.65	0.012808353273
2	2356	0.65	0.01146734044
2	2356	0.65	0.020947986643
2	2356	0.65	0.015852826442
2	2356	0.65	0.064964297479
2	2356	0.65	0.056325649986
2	2389	0.66	0.017077116559
2	2389	0.66	0.01347189459
2	2389	0.66	0.010425525836
2	2389	0.66	0.015191581081
2	2389	0.66	0.012399144764
2	2389	0.66	0.011786828885
2	2389	0.66	0.018233746166
2	2389	0.66	0.011825374851
2	2389	0.66	0.016597593188
2	2389	0.66	0.016901662108
2	2389	0.66	0.063563938066
2	2438	0.67	0.017513496124
2	2438	0.67	0.016369526252
2	2438	0.67	0.015618622768
2	2438	0.67	0.013756566586
2	2438	0.67	0.015450868639
2	2438	0.67	0.034076540843
2	2438	0.67	0.023133121298
2	2473	0.68	0.019629981974
2	2473	0.68	0.018947342281
2	2473	0.68	0.016192959369
2	2473	0.68	0.018894546668
2	2473	0.68	0.025764737153
2	2473	0.68	0.024210198381
2	2473	0.68	0.020868156195
2	2473	0.68	0.02399077788
2	2473	0.68	0.017527625635
2	2473	0.68	0.015240130923
2	2506	0.69	0.026113307497
2	2506	0.69	0.02529434334
2	2506	0.69	0.023925809352
2	2506	0.69	0.023696192848
2	2506	0.69	0.023371332099
2	2506	0.69	0.012552874568
2	2506	0.69	0.028187822969
2	2506	0.69	0.026935558437
2	2506	0.69	0.018151121407
2	2506	0.69	0.035881304546
2	2506	0.69	0.026657559138
2	2506	0.69	0.0795315965
2	2539	0.7	0.019434951005
2	2539	0.7	0.025641860921
2	2539	0.7	0.01820663786
2	2539	0.7	0.014641150891
2	2539	0.7	0.011078233125
2	2539	0.7	0.032431396735
2	2539	0.7	0.014865727589
2	2539	0.7	0.031923598464
2	2539	0.7	0.028425914926
2	2539	0.7	0.046907913018
2	2539	0.7	0.039118404892
2	2539	0.7	0.029515121225
2	2539	0.7	0.02872117079
2	2539	0.7	0.079464672153
2	2539	0.7	0.078760824789
2	2539	0.7	0.075144975198
2	2539	0.7	0.053799547699
2	2539	0.7	0.012781428283
2	2539	0.7	0.027417851884
2	2539	0.7	0.031851975885
2	2539	0.7	0.030505573942
2	2568	0.71	0.024637972386
2	2568	0.71	0.019888988356
2	2568	0.71	0.017104143074
2	2568	0.71	0.017119821872
2	2568	0.71	0.014581210716
2	2568	0.71	0.038217242853
2	2568	0.71	0.036651411036
2	2568	0.71	0.033636379006
2	2568	0.71	0.01827538666
2	2568	0.71	0.012708405514
2	2568	0.71	0.021535840701
2	2568	0.71	0.015900606868
2	2568	0.71	0.014676465642
2	2568	0.71	0.020593675612
2	2568	0.71	0.014277900682
2	2595	0.72	0.013770415431
2	2595	0.72	0.019302195221
2	2595	0.72	0.012385722067
2	2595	0.72	0.015009774875
2	2595	0.72	0.012333252532
2	2595	0.72	0.014651897553
2	2595	0.72	0.014533304587
2	2595	0.72	0.022781374915
2	2595	0.72	0.014121845734
2	2595	0.72	0.037905013085
2	2595	0.72	0.031402355341
2	2595	0.72	0.02371955421
2	2595	0.72	0.044864361945
2	2595	0.72	0.041702299978
2	2595	0.72	0.015344187814
2	2642	0.73	0.019007279862
2	2642	0.73	0.012445445845
2	2642	0.73	0.014689513191
2	2642	0.73	0.010207241278
2	2642	0.73	0.011021354743
2	2642	0.73	0.018812550698
2	2642	0.73	0.013535124639
2	2642	0.73	0.012106052595
2	2683	0.74	0.019572588922
2	2683	0.74	0.017566806747
2	2683	0.74	0.016985217374
2	2683	0.74	0.018415343634
2	2683	0.74	0.01734245281
2	2683	0.74	0.018610299011
2	2683	0.74	0.01308421522
2	2683	0.74	0.010896038402
2	2683	0.74	0.016254611224
2	2683	0.74	0.012127757871
2	2683	0.74	0.019734031963
2	2716	0.75	0.013130329132
2	2716	0.75	0.019356154298
2	2716	0.75	0.014764943569
2	2716	0.75	0.022277816079
2	2716	0.75	0.021310988272
2	2716	0.75	0.020101810957
2	2716	0.75	0.019603736018
2	2716	0.75	0.029291468213
2	2716	0.75	0.017005839626
2	2745	0.76	0.017742617656
2	2745	0.76	0.013921927164
2	2745	0.76	0.01708705743
2	2745	0.76	0.012278647641
2	2745	0.76	0.012387265755
2	2745	0.76	0.015199491705
2	2745	0.76	0.03137457204
2	2745	0.76	0.029847239852
2	2745	0.76	0.028324495302
2	2745	0.76	0.015282629981
2	2745	0.76	0.03882105414
2	2745	0.76	0.026243674499
2	2745	0.76	0.02341775414
2	2745	0.76	0.01392995306
2	2745	0.76	0.012008446511
2	2784	0.77	0.019769076832
2	2784	0.77	0.013094444056
2	2784	0.77	0.013654639436
2	2784	0.77	0.010238250237
2	2784	0.77	0.038330132517
2	2784	0.77	0.029587643686
2	2784	0.77	0.022219614072
2	2784	0.77	0.017364974031
2	2784	0.77	0.046725543837
2	2784	0.77	0.03756933648
2	2784	0.77	0.037303127755
2	2825	0.78	0.018813637906
2	2825	0.78	0.013099115316
2	2825	0.78	0.017612991718
2	2825	0.78	0.019138769518
2	2825	0.78	0.01325740125
2	2825	0.78	0.012392471069
2	2825	0.78	0.017591034015
2	2825	0.78	0.014789735692
2	2825	0.78	0.014133171182
2	2825	0.78	0.011026206095
2	2825	0.78	0.046579193662
2	2825	0.78	0.042006281734
2	2825	0.78	0.041534718155
2	2825	0.78	0.025454449841
2	2825	0.78	0.022332732529
2	2825	0.78	0.016508839938
2	2825	0.78	0.02473004872
2	2825	0.78	0.02244886495
2	2825	0.78	0.015224183578
2	2825	0.78	0.011880905517
2	2825	0.78	0.010337074445
2	2858	0.79	0.013875064475
2	2858	0.79	0.016996582317
2	2858	0.79	0.013866047857
2	2858	0.79	0.011211171016
2	2858	0.79	0.012314295451
2	2858	0.79	0.016508757419
2	2858	0.79	0.012073257491
2	2858	0.79	0.016156782402
2	2858	0.79	0.019324108508
2	2858	0.79	0.015278734877
2	2858	0.79	0.016082701707
2	2858	0.79	0.018178886574
2	2858	0.79	0.016741327203
2	2858	0.79	0.016619599621
2	2858	0.79	0.011465401057
2	2893	0.8	0.018707045033
2	2893	0.8	0.016200564546
2	2893	0.8	0.015785142896
2	2893	0.8	0.016968755654
2	2893	0.8	0.014619528392
2	2893	0.8	0.01001703802
2	2893	0.8	0.011222199854
2	2893	0.8	0.019389768857
2	2893	0.8	0.017088576851
2	2893	0.8	0.011073976076
2	2930	0.81	0.019836162705
2	2930	0.81	0.015262523666
2	2930	0.81	0.015231363364
2	2930	0.81	0.017518017519
2	2930	0.81	0.016623920601
2	2930	0.81	0.010380513751
2	2930	0.81	0.016236663533
2	2930	0.81	0.017168237592
2	2930	0.81	0.012521464112
2	2930	0.81	0.017063865861
2	2930	0.81	0.010984071654
2	2930	0.81	0.013180000391
2	2969	0.82	0.030410290077
2	2969	0.82	0.016059291539
2	2969	0.82	0.018866258905
2	2969	0.82	0.010005055665
2	2969	0.82	0.0126547906
2	2969	0.82	0.015430760581
2	2969	0.82	0.014970692464
2	2969	0.82	0.014098817513
2	2969	0.82	0.0191705339
2	2969	0.82	0.017845801754
2	2969	0.82	0.010183995042
2	2969	0.82	0.018395073646
2	2969	0.82	0.011235601944
2	2969	0.82	0.011090473864
2	3006	0.83	0.015302372917
2	3006	0.83	0.017640249412
2	3006	0.83	0.014605651923
2	3006	0.83	0.010363999696
2	3006	0.83	0.015387439455
2	3006	0.83	0.01540611053
2	3006	0.83	0.014035574539
2	3006	0.83	0.018201249777
2	3006	0.83	0.011112419182
2	3006	0.83	0.013786682449
2	3006	0.83	0.012468677327
2	3006	0.83	0.010924739354
2	3006	0.83	0.012042879397
2	3006	0.83	0.010433316476
2	3041	0.84	0.019293363295
2	3041	0.84	0.014682839961
2	3041	0.84	0.014113467959
2	3041	0.84	0.011494157235
2	3041	0.84	0.014267854633
2	3041	0.84	0.017215744461
2	3041	0.84	0.018862025058
2	3041	0.84	0.017856049136
2	3041	0.84	0.015108884734
2	3041	0.84	0.011032947881
2	3041	0.84	0.019882202134
2	3041	0.84	0.018496869311
2	3041	0.84	0.012998474348
2	3084	0.85	0.015491091106
2	3084	0.85	0.014200756598
2	3084	0.85	0.017352896968
2	3084	0.85	0.011974573294
2	3084	0.85	0.019591629886
2	3084	0.85	0.014802738205
2	3084	0.85	0.01977688619
2	3084	0.85	0.014000159509
2	3084	0.85	0.012636308036
2	3084	0.85	0.012462761149
2	3084	0.85	0.012410373928
2	3084	0.85	0.011494322319
2	3109	0.86	0.017735638941
2	3109	0.86	0.014932526989
2	3109	0.86	0.010931575854
2	3109	0.86	0.019917653901
2	3109	0.86	0.016943496815
2	3109	0.86	0.014374633787
2	3109	0.86	0.013654385072
2	3109	0.86	0.019188596631
2	3109	0.86	0.010792952627
2	3109	0.86	0.01478041617
2	3109	0.86	0.016997474473
2	3109	0.86	0.01499463465
2	3109	0.86	0.012793563334
2	3138	0.87	0.01372768108
2	3138	0.87	0.012277893776
2	3138	0.87	0.017351122788
2	3138	0.87	0.013174375984
2	3138	0.87	0.010499091003
2	3138	0.87	0.029820838971
2	3138	0.87	0.024707215532
2	3138	0.87	0.021845436101
2	3138	0.87	0.010806657316
2	3185	0.88	0.018772653347
2	3185	0.88	0.016256619557
2	3185	0.88	0.012535611451
2	3185	0.88	0.010084867583
2	3185	0.88	0.017926921493
2	3185	0.88	0.019436915323
2	3185	0.88	0.015096400154
2	3185	0.88	0.016238059164
2	3185	0.88	0.026660977763
2	3185	0.88	0.01516908341
2	3212	0.89	0.01765481425
2	3212	0.89	0.010241065309
2	3212	0.89	0.013327640379
2	3212	0.89	0.018849095185
2	3212	0.89	0.014724191679
2	3212	0.89	0.010949863418
2	3212	0.89	0.018042112347
2	3212	0.89	0.014365495062
2	3212	0.89	0.019162704139
2	3212	0.89	0.01716932184
2	3212	0.89	0.016078879959
2	3251	0.9	0.015530756565
2	3251	0.9	0.010002256875
2	3251	0.9	0.015730290679
2	3251	0.9	0.029742703109
2	3251	0.9	0.028865557314
2	3251	0.9	0.026876602294
2	3251	0.9	0.026815429068
2	3251	0.9	0.020712308175
2	3251	0.9	0.020653757413
2	3251	0.9	0.019521133916
2	3251	0.9	0.016449562167
2	3251	0.9	0.014159385348
2	3251	0.9	0.029720874031
2	3296	0.91	0.016646287459
2	3296	0.91	0.016471571711
2	3296	0.91	0.015044298605
2	3296	0.91	0.025921001702
2	3296	0.91	0.011303912505
2	3296	0.91	0.016243186822
2	3296	0.91	0.014187734136
2	3296	0.91	0.014153624431
2	3296	0.91	0.019121838987
2	3296	0.91	0.018747506335
2	3315	0.92	0.015383853024
2	3315	0.92	0.014148450451
2	3315	0.92	0.012967138971
2	3315	0.92	0.012315876604
2	3315	0.92	0.018775921588
2	3315	0.92	0.01438303439
2	3315	0.92	0.018427649988
2	3315	0.92	0.016173719543
2	3315	0.92	0.016988476565
2	3315	0.92	0.019894021992
2	3358	0.93	0.02513849202
2	3358	0.93	0.028936780968
2	3358	0.93	0.012304205432
2	3358	0.93	0.010478970633
2	3358	0.93	0.034041829505
2	3358	0.93	0.030683723085
2	3358	0.93	0.02825049599
2	3358	0.93	0.026087698941
2	3358	0.93	0.020997667253
2	3358	0.93	0.044738539011
2	3358	0.93	0.036036525235
2	3358	0.93	0.035253438562
2	3358	0.93	0.033414692754
2	3358	0.93	0.025390779212
2	3358	0.93	0.022643255768
2	3358	0.93	0.012075820111
2	3395	0.94	0.014429789042
2	3395	0.94	0.010119854913
2	3395	0.94	0.019638318992
2	3395	0.94	0.015540964069
2	3395	0.94	0.013064906692
2	3395	0.94	0.01234977572
2	3395	0.94	0.010406145993
2	3395	0.94	0.018855635829
2	3395	0.94	0.014742710952
2	3395	0.94	0.014732123698
2	3395	0.94	0.015842164788
2	3395	0.94	0.014680181276
2	3395	0.94	0.01562455692
2	3395	0.94	0.018790907714
2	3395	0.94	0.02662176509
2	3432	0.95	0.015805035161
2	3432	0.95	0.011102408895
2	3432	0.95	0.010319673218
2	3432	0.95	0.015223955344
2	3432	0.95	0.016633597031
2	3432	0.95	0.010720057001
2	3432	0.95	0.01882547617
2	3432	0.95	0.016577424717
2	3432	0.95	0.018467589387
2	3432	0.95	0.016203435074
2	3432	0.95	0.01533336856
2	3432	0.95	0.029291194878
2	3473	0.96	0.017017611352
2	3473	0.96	0.019618220255
2	3473	0.96	0.015021971446
2	3473	0.96	0.017290119589
2	3473	0.96	0.011306585347
2	3473	0.96	0.018760655022
2	3473	0.96	0.016908541698
2	3473	0.96	0.012120460735
2	3473	0.96	0.027478996262
2	3473	0.96	0.023310608206
2	3473	0.96	0.011086257224
2	3473	0.96	0.016406327913
2	3473	0.96	0.016263845668
2	3473	0.96	0.035200955406
2	3473	0.96	0.015675566879
2	3500	0.97	0.016267515165
2	3500	0.97	0.018521270471
2	3500	0.97	0.016208151679
2	3500	0.97	0.013714897607
2	3500	0.97	0.015686772469
2	3500	0.97	0.013243371565
2	3500	0.97	0.015196903587
2	3500	0.97	0.012544829459
2	3500	0.97	0.019209253878
2	3500	0.97	0.018845278109
2	3500	0.97	0.018134599192
2	3500	0.97	0.022035829662
2	3500	0.97	0.015389710518
2	3500	0.97	0.01186472632
2	3500	0.97	0.018002065749
2	3500	0.97	0.015829426522
2	3531	0.98	0.017959942418
2	3531	0.98	0.015671871508
2	3531	0.98	0.010284932234
2	3531	0.98	0.012923467978
2	3531	0.98	0.016201404061
2	3531	0.98	0.010713828777
2	3531	0.98	0.012532527926
2	3531	0.98	0.012622105609
2	3568	0.99	0.014984684447
2	3568	0.99	0.012583352645
2	3568	0.99	0.019518185821
2	3568	0.99	0.017877378005
2	3568	0.99	0.014817936957
2	3568	0.99	0.016201189232
2	3568	0.99	0.019540474643
2	3611	1	0.011792014158
2	3611	1	0.015262350086
2	3611	1	0.010338150266
2	3611	1	0.025808369378
2	3611	1	0.011389606431
2	3611	1	0.016385416734
2	3611	1	0.013643236864
2	3611	1	0.013593630585
2	3611	1	0.019529717613
2	3611	1	0.010548945796
2	3611	1	0.02415254679
2	3654	1.01	0.018410307568
2	3654	1.01	0.016320569659
2	3654	1.01	0.015543836563
2	3654	1.01	0.025741346871
2	3654	1.01	0.02517549185
2	3654	1.01	0.014478190864
2	3654	1.01	0.013150598564
2	3654	1.01	0.015407453637
2	3695	1.02	0.01999201968
2	3695	1.02	0.016476741413
2	3695	1.02	0.015408534354
2	3695	1.02	0.029774221453
2	3695	1.02	0.028521421618
2	3695	1.02	0.019027298968
2	3695	1.02	0.01236867218
2	3695	1.02	0.01136902045
2	3695	1.02	0.029904447785
2	3695	1.02	0.026767297916
2	3695	1.02	0.021882379472
2	3695	1.02	0.012747221742
2	3695	1.02	0.044140016152
2	3695	1.02	0.035117825627
2	3695	1.02	0.025072964659
2	3695	1.02	0.015853922509
2	3695	1.02	0.03030939547
2	3695	1.02	0.02461704474
2	3695	1.02	0.021100918203
2	3695	1.02	0.013313965553
2	3695	1.02	0.011985890851
2	3695	1.02	0.015421017353
2	3695	1.02	0.014158225654
2	3738	1.03	0.024079049734
2	3738	1.03	0.020177469635
2	3738	1.03	0.014454598496
2	3738	1.03	0.013609340579
2	3738	1.03	0.011539353495
2	3738	1.03	0.010466147365
2	3738	1.03	0.010246005452
2	3738	1.03	0.034772295498
2	3738	1.03	0.016882232382
2	3738	1.03	0.018174584399
2	3738	1.03	0.018404032398
2	3738	1.03	0.014459708897
2	3738	1.03	0.012417438057
2	3738	1.03	0.017355165108
2	3738	1.03	0.019747280014
2	3738	1.03	0.032315726794
2	3738	1.03	0.02673414749
2	3738	1.03	0.018953327694
2	3738	1.03	0.015310763585
2	3738	1.03	0.013131249905
2	3738	1.03	0.029241578066
2	3771	1.04	0.015936457351
2	3771	1.04	0.014190352906
2	3771	1.04	0.019455413007
2	3771	1.04	0.018923679873
2	3771	1.04	0.016283448322
2	3771	1.04	0.014333613126
2	3771	1.04	0.018408146923
2	3771	1.04	0.017502075141
2	3771	1.04	0.019470892447
2	3771	1.04	0.016277311684
2	3771	1.04	0.011451083941
2	3771	1.04	0.014497236421
2	3771	1.04	0.019937814792
2	3771	1.04	0.013862222324
2	3771	1.04	0.015332230181
2	3771	1.04	0.013919237556
2	3808	1.05	0.016877764842
2	3808	1.05	0.016097092906
2	3808	1.05	0.013316980126
2	3808	1.05	0.018967142034
2	3808	1.05	0.012007174786
2	3808	1.05	0.018244522447
2	3841	1.06	0.01959382608
2	3841	1.06	0.023155408597
2	3841	1.06	0.026109575077
2	3841	1.06	0.019793051111
2	3841	1.06	0.018164698675
2	3841	1.06	0.013968789436
2	3841	1.06	0.017833128242
2	3841	1.06	0.014103831012
2	3841	1.06	0.014067602119
2	3841	1.06	0.013119632003
2	3841	1.06	0.028016394989
2	3841	1.06	0.011609892701
2	3841	1.06	0.016028899411
2	3841	1.06	0.026424157478
2	3841	1.06	0.029301746317
2	3872	1.07	0.012168697579
2	3872	1.07	0.011522266688
2	3872	1.07	0.015586981327
2	3872	1.07	0.013280892302
2	3872	1.07	0.025273315632
2	3872	1.07	0.017286505845
2	3872	1.07	0.015930305098
2	3872	1.07	0.028140174594
2	3872	1.07	0.027160133462
2	3872	1.07	0.018781398787
2	3909	1.08	0.015237130112
2	3909	1.08	0.012390809133
2	3909	1.08	0.010529043694
2	3909	1.08	0.010267503312
2	3909	1.08	0.025924920556
2	3909	1.08	0.011277777452
2	3956	1.09	0.012050784403
2	3956	1.09	0.029405001305
2	3956	1.09	0.016723157778
2	3956	1.09	0.011919672902
2	3956	1.09	0.011618678468
2	3956	1.09	0.027719716068
2	3956	1.09	0.024254928338
2	3956	1.09	0.016468917772
2	3956	1.09	0.036794321378
2	3956	1.09	0.033732951822
2	3956	1.09	0.033393491029
2	3956	1.09	0.021740386463
2	3956	1.09	0.015134354714
2	3956	1.09	0.02184108057
2	3956	1.09	0.016172258371
2	3956	1.09	0.017667650909
2	3956	1.09	0.011492227212
2	3956	1.09	0.019862578617
2	3956	1.09	0.018893055421
2	3989	1.1	0.018965197898
2	3989	1.1	0.016249965556
2	3989	1.1	0.011276589554
2	3989	1.1	0.019810105764
2	3989	1.1	0.017934407266
2	3989	1.1	0.01638906113
2	3989	1.1	0.011613099731
2	3989	1.1	0.018033232357
2	3989	1.1	0.017958719182
2	3989	1.1	0.017550695312
2	3989	1.1	0.017074142318
2	3989	1.1	0.018045459042
2	3989	1.1	0.015424711374
2	3989	1.1	0.011849573903
2	3989	1.1	0.028746810062
2	4030	1.11	0.017390968887
2	4030	1.11	0.014595206684
2	4030	1.11	0.010532631189
2	4030	1.11	0.018625090245
2	4030	1.11	0.015865721151
2	4030	1.11	0.011489205418
2	4030	1.11	0.017441045897
2	4030	1.11	0.011984578102
2	4030	1.11	0.011934420095
2	4030	1.11	0.028938464461
2	4030	1.11	0.022151917346
2	4030	1.11	0.032113344789
2	4030	1.11	0.027421648259
2	4071	1.12	0.018003888874
2	4071	1.12	0.011442407172
2	4071	1.12	0.013092835092
2	4071	1.12	0.019988146693
2	4071	1.12	0.010611758365
2	4071	1.12	0.010294011423
2	4071	1.12	0.017858952518
2	4071	1.12	0.013874555771
2	4071	1.12	0.011704835288
2	4071	1.12	0.028659887613
2	4071	1.12	0.014956019287
2	4071	1.12	0.013306777996
2	4071	1.12	0.012901779432
2	4071	1.12	0.033610047411
2	4112	1.13	0.017040162284
2	4112	1.13	0.01263986789
2	4112	1.13	0.019487739336
2	4112	1.13	0.012487002856
2	4112	1.13	0.012565074763
2	4112	1.13	0.028198265659
2	4112	1.13	0.02524553555
2	4112	1.13	0.016628782991
2	4112	1.13	0.016479077465
2	4112	1.13	0.015416740773
2	4151	1.14	0.038778912317
2	4151	1.14	0.023895964205
2	4151	1.14	0.017645377933
2	4151	1.14	0.018094397243
2	4151	1.14	0.011191495666
2	4151	1.14	0.028591648268
2	4192	1.15	0.034404700753
2	4192	1.15	0.029029926569
2	4192	1.15	0.019486005096
2	4192	1.15	0.050148633766
2	4192	1.15	0.028890167447
2	4192	1.15	0.027095608739
2	4192	1.15	0.029073085395
2	4192	1.15	0.026007190342
2	4192	1.15	0.033897453331
2	4192	1.15	0.03378599176
2	4192	1.15	0.018741968439
2	4225	1.16	0.016778662302
2	4225	1.16	0.029455657435
2	4225	1.16	0.025816336156
2	4225	1.16	0.025106108352
2	4225	1.16	0.048438802653
2	4225	1.16	0.047740557743
2	4225	1.16	0.033801559299
2	4225	1.16	0.023108799964
2	4225	1.16	0.013448659786
2	4225	1.16	0.012703490663
2	4225	1.16	0.011430465458
2	4225	1.16	0.024464613538
2	4225	1.16	0.039027839475
2	4225	1.16	0.019512720247
2	4225	1.16	0.011146630484
2	4225	1.16	0.038089242387
2	4262	1.17	0.029505941331
2	4262	1.17	0.017184806714
2	4262	1.17	0.014386449937
2	4262	1.17	0.019976630493
2	4262	1.17	0.033813724422
2	4262	1.17	0.025957057689
2	4262	1.17	0.013703967844
2	4262	1.17	0.047617673878
2	4262	1.17	0.042500369894
2	4262	1.17	0.034020333863
2	4262	1.17	0.022227999573
2	4262	1.17	0.020804485941
2	4262	1.17	0.013046907548
2	4262	1.17	0.011229555633
2	4262	1.17	0.019709221904
2	4262	1.17	0.013426574496
2	4262	1.17	0.037661492269
2	4262	1.17	0.036601652559
2	4262	1.17	0.029871795461
2	4262	1.17	0.027332174887
2	4262	1.17	0.02533606537
2	4299	1.18	0.017900226901
2	4299	1.18	0.014585371523
2	4299	1.18	0.013630821628
2	4299	1.18	0.011306081421
2	4299	1.18	0.013025865541
2	4299	1.18	0.016944691792
2	4299	1.18	0.012670515943
2	4299	1.18	0.012270705454
2	4299	1.18	0.013018269893
2	4299	1.18	0.012968807062
2	4299	1.18	0.03411161722
2	4299	1.18	0.027229668771
2	4299	1.18	0.055120485235
2	4299	1.18	0.05180160702
2	4299	1.18	0.04895956974
2	4299	1.18	0.046539869049
2	4299	1.18	0.044460222518
2	4299	1.18	0.030780953315
2	4299	1.18	0.028350762316
2	4299	1.18	0.021294265418
2	4340	1.19	0.012168170114
2	4340	1.19	0.010890243915
2	4340	1.19	0.019227827745
2	4340	1.19	0.017941224529
2	4340	1.19	0.016214464861
2	4340	1.19	0.018773408387
2	4340	1.19	0.010484872301
2	4340	1.19	0.017359606168
2	4340	1.19	0.012343710976
2	4340	1.19	0.025690422477
2	4340	1.19	0.02551024753
2	4340	1.19	0.025259954335
2	4340	1.19	0.01994522689
2	4340	1.19	0.017047916187
2	4340	1.19	0.011354557119
2	4369	1.2	0.017461341874
2	4369	1.2	0.017720459425
2	4369	1.2	0.011547722486
2	4369	1.2	0.019079314028
2	4369	1.2	0.019342932533
2	4369	1.2	0.012517645919
2	4369	1.2	0.025058129931
2	4369	1.2	0.017625582528
2	4369	1.2	0.015749153061
2	4369	1.2	0.014984504838
2	4369	1.2	0.014618912725
2	4369	1.2	0.014353011554
2	4369	1.2	0.013532394522
2	4369	1.2	0.018670500377
2	4369	1.2	0.013729137566
2	4369	1.2	0.010324585331
2	4392	1.21	0.016613515615
2	4392	1.21	0.014499349866
2	4392	1.21	0.019157418526
2	4392	1.21	0.016233940953
2	4392	1.21	0.013774158794
2	4429	1.22	0.018009315115
2	4429	1.22	0.027949450127
2	4429	1.22	0.023788548246
2	4429	1.22	0.021174783106
2	4429	1.22	0.014707946112
2	4464	1.23	0.016021166483
2	4464	1.23	0.011369080963
2	4464	1.23	0.031111616271
2	4464	1.23	0.023325754694
2	4464	1.23	0.022408761427
2	4464	1.23	0.015847043439
2	4464	1.23	0.01553555425
2	4495	1.24	0.025689212679
2	4495	1.24	0.010685867668
2	4495	1.24	0.011114300535
2	4495	1.24	0.029719251633
2	4495	1.24	0.024590491296
2	4495	1.24	0.014523070535
2	4495	1.24	0.014052306053
2	4495	1.24	0.033353742467
2	4495	1.24	0.032813257562
2	4495	1.24	0.029524554076
2	4495	1.24	0.021511143748
2	4495	1.24	0.016909565251
2	4495	1.24	0.027171827219
2	4495	1.24	0.025948897227
2	4495	1.24	0.020447394555
2	4542	1.25	0.029042049415
2	4542	1.25	0.026783680777
2	4542	1.25	0.025815130061
2	4542	1.25	0.017825802898
2	4542	1.25	0.015178918024
2	4542	1.25	0.022745833063
2	4542	1.25	0.020899648736
2	4542	1.25	0.02987057139
2	4542	1.25	0.014060064675
2	4542	1.25	0.019674704072
2	4542	1.25	0.016521426799
2	4542	1.25	0.031541920838
2	4542	1.25	0.020989119507
2	4542	1.25	0.018362503307
2	4542	1.25	0.019858101538
2	4542	1.25	0.014055094131
2	4585	1.26	0.014086699983
2	4585	1.26	0.012729352942
2	4585	1.26	0.015847005731
2	4585	1.26	0.012546917358
2	4585	1.26	0.011676379152
2	4585	1.26	0.011528165735
2	4585	1.26	0.010006535518
2	4585	1.26	0.015469086945
2	4585	1.26	0.015490390008
2	4585	1.26	0.019722503949
2	4585	1.26	0.024904560734
2	4585	1.26	0.02818984467
2	4585	1.26	0.016448067112
2	4618	1.27	0.015987332715
2	4618	1.27	0.017878339039
2	4618	1.27	0.013523564832
2	4618	1.27	0.01237462175
2	4618	1.27	0.010734377904
2	4618	1.27	0.012013827683
2	4618	1.27	0.029297301534
2	4618	1.27	0.02225427289
2	4618	1.27	0.014639653797
2	4651	1.28	0.010053928292
2	4651	1.28	0.019126689101
2	4651	1.28	0.037240421186
2	4651	1.28	0.027462051855
2	4651	1.28	0.016147631672
2	4651	1.28	0.014305191415
2	4651	1.28	0.02703323248
2	4651	1.28	0.033127591003
2	4651	1.28	0.029858625747
2	4651	1.28	0.020243372822
2	4690	1.29	0.043241858959
2	4690	1.29	0.040195219981
2	4690	1.29	0.037067853395
2	4690	1.29	0.034237926491
2	4690	1.29	0.030697004433
2	4690	1.29	0.028971388999
2	4690	1.29	0.023660021964
2	4690	1.29	0.013964719889
2	4690	1.29	0.01321907483
2	4690	1.29	0.01266345058
2	4713	1.3	0.011500877331
2	4713	1.3	0.034262156954
2	4713	1.3	0.017753941263
2	4713	1.3	0.055660917771
2	4713	1.3	0.049789262263
2	4713	1.3	0.036494191877
2	4713	1.3	0.024178908742
2	4713	1.3	0.01076266539
2	4713	1.3	0.022830845949
2	4713	1.3	0.014626052107
2	4748	1.31	0.025025410473
2	4748	1.31	0.016399133798
2	4748	1.31	0.012470018689
2	4748	1.31	0.02749210322
2	4748	1.31	0.032880237896
2	4748	1.31	0.026136716129
2	4748	1.31	0.015735530312
2	4748	1.31	0.055810939497
2	4748	1.31	0.048734599479
2	4748	1.31	0.048072325166
2	4781	1.32	0.039021072941
2	4781	1.32	0.03673234313
2	4781	1.32	0.032734353774
2	4781	1.32	0.015584319819
2	4781	1.32	0.013178168815
2	4781	1.32	0.049324015143
2	4781	1.32	0.04577845199
2	4781	1.32	0.042095446444
2	4781	1.32	0.036503356879
2	4781	1.32	0.017526358824
2	4781	1.32	0.014805796346
2	4781	1.32	0.019832070884
2	4808	1.33	0.029580400799
2	4808	1.33	0.019902846221
2	4808	1.33	0.017530583817
2	4808	1.33	0.02077585858
2	4808	1.33	0.012320884974
2	4808	1.33	0.010437952367
2	4808	1.33	0.064096269083
2	4808	1.33	0.053967539509
2	4808	1.33	0.051165118987
2	4808	1.33	0.045562671835
2	4808	1.33	0.042828594052
2	4808	1.33	0.04096085861
2	4808	1.33	0.033949879715
2	4808	1.33	0.02930743073
2	4808	1.33	0.017991827139
2	4808	1.33	0.037290683547
2	4808	1.33	0.033821431993
2	4808	1.33	0.027802882554
2	4808	1.33	0.022864789968
2	4808	1.33	0.020385029357
2	4808	1.33	0.013169955158
2	4808	1.33	0.015533989464
2	4808	1.33	0.012120610268
2	4808	1.33	0.010597318158
2	4808	1.33	0.019541291931
2	4808	1.33	0.014587449564
2	4808	1.33	0.022106707956
2	4837	1.34	0.017961798212
2	4837	1.34	0.011477385192
2	4837	1.34	0.01802577923
2	4837	1.34	0.010414688549
2	4837	1.34	0.015265302229
2	4837	1.34	0.015804996354
2	4837	1.34	0.019812238876
2	4837	1.34	0.012266363547
2	4882	1.35	0.012579030104
2	4882	1.35	0.014037976866
2	4882	1.35	0.014232548908
2	4882	1.35	0.018699291421
2	4882	1.35	0.011158610314
2	4882	1.35	0.016226021235
2	4882	1.35	0.016029282991
2	4925	1.36	0.016817112254
2	4925	1.36	0.010233077859
2	4925	1.36	0.01254460982
2	4925	1.36	0.019479769498
2	4925	1.36	0.019405489585
2	4925	1.36	0.015991684344
2	4925	1.36	0.015203308496
2	4925	1.36	0.014287431897
2	4925	1.36	0.01259191557
2	4925	1.36	0.017333411371
2	4925	1.36	0.013379321887
2	4925	1.36	0.019824582568
2	4925	1.36	0.026394190326
2	4925	1.36	0.023606679787
2	4960	1.37	0.015695014773
2	4960	1.37	0.016042652062
2	4960	1.37	0.015252921595
2	4960	1.37	0.010261061469
2	4960	1.37	0.0165059116
2	4960	1.37	0.026060177715
2	4960	1.37	0.025643625262
2	4987	1.38	0.021850810563
[...]
2	34047	9.44	0.015637121306
2	34047	9.44	0.018698218508
2	34047	9.44	0.01892356468
2	34047	9.44	0.017986498296999
2	34047	9.44	0.017160418812999
2	34047	9.44	0.022719454048
2	34047	9.44	0.020364523244
2	34047	9.44	0.018424472474999
2	34047	9.44	0.011984458242999
2	34047	9.44	0.027564329432
2	34047	9.44	0.024880213781
2	34047	9.44	0.019985473344999
2	34047	9.44	0.028261547908
2	34047	9.44	0.025197823342999
2	34082	9.45	0.012407457563999
2	34082	9.45	0.01785174434
2	34082	9.45	0.014474106717
2	34082	9.45	0.010602623173
2	34082	9.45	0.019859324479999
2	34082	9.45	0.017074076178
2	34082	9.45	0.016519074758
2	34082	9.45	0.017610971748999
2	34121	9.46	0.018293835719
2	34121	9.46	0.016630986984
2	34121	9.46	0.015117352253998
2	34121	9.46	0.011081076112999
2	34121	9.46	0.025884448558999
2	34121	9.46	0.011860964664999
2	34121	9.46	0.010157819434999
2	34121	9.46	0.028516250749
2	34121	9.46	0.026511986029
2	34121	9.46	0.027266119606999
2	34121	9.46	0.023646194675999
2	34121	9.46	0.027202176706
2	34121	9.46	0.021899641798999
2	34121	9.46	0.019815711682
2	34121	9.46	0.012928647698999
2	34121	9.46	0.011950553395
2	34158	9.47	0.011364244755001
2	34158	9.47	0.014132817128001
2	34158	9.47	0.013426884747
2	34158	9.47	0.012278150063
2	34158	9.47	0.019605708405001
2	34158	9.47	0.014743245467001
2	34158	9.47	0.013962004909001
2	34158	9.47	0.022650682763
2	34158	9.47	0.019408588694001
2	34158	9.47	0.018275793514
2	34158	9.47	0.030869374271001
2	34189	9.48	0.021115702592001
2	34189	9.48	0.015491419567001
2	34189	9.48	0.010305430405001
2	34189	9.48	0.011161568255
2	34189	9.48	0.014983201088
2	34189	9.48	0.010102022228001
2	34189	9.48	0.015749778825001
2	34189	9.48	0.015442035102001
2	34189	9.48	0.013743492098001
2	34189	9.48	0.012405487273
2	34189	9.48	0.014721758106001
2	34189	9.48	0.038690400528001
2	34189	9.48	0.033810519221001
2	34189	9.48	0.025939236137001
2	34226	9.49	0.016641292712
2	34226	9.49	0.017783835484
2	34226	9.49	0.016859811372001
2	34226	9.49	0.024104001796001
2	34226	9.49	0.020079819112
2	34226	9.49	0.016174168651
2	34226	9.49	0.034551900588001
2	34257	9.5	0.021898517922001
2	34257	9.5	0.013399664685
2	34257	9.5	0.011058864897
2	34257	9.5	0.019995501866001
2	34257	9.5	0.019247761666
2	34257	9.5	0.016229131454001
2	34257	9.5	0.011648796240999
2	34257	9.5	0.010292747132
2	34257	9.5	0.019221049417
2	34257	9.5	0.024162432057
2	34257	9.5	0.021168315825999
2	34257	9.5	0.025821758227
2	34257	9.5	0.024533968535
2	34257	9.5	0.015020159049
2	34257	9.5	0.01050704989
2	34292	9.51	0.034675724865
2	34292	9.51	0.029662060406
2	34292	9.51	0.012474036812
2	34292	9.51	0.051806384526
2	34292	9.51	0.050063230097001
2	34292	9.51	0.049696886097999
2	34292	9.51	0.014434719476
2	34292	9.51	0.019360235269
2	34292	9.51	0.014888613408999
2	34333	9.52	0.030277328647999
2	34333	9.52	0.026618538301999
2	34333	9.52	0.022651575362
2	34333	9.52	0.018806795310999
2	34333	9.52	0.033410139354
2	34333	9.52	0.010071965588999
2	34333	9.52	0.026866524602999
2	34333	9.52	0.016537799804
2	34333	9.52	0.027398310918
2	34333	9.52	0.021276085453
2	34333	9.52	0.010860588198
2	34333	9.52	0.019276926724
2	34333	9.52	0.014194952664999
2	34378	9.53	0.014871883325
2	34378	9.53	0.014114541230999
2	34378	9.53	0.010912452144
2	34378	9.53	0.017758475857999
2	34378	9.53	0.035092657083
2	34378	9.53	0.028645561567
2	34378	9.53	0.02537611761
2	34378	9.53	0.013755840599
2	34378	9.53	0.01157036931
2	34378	9.53	0.019701373164999
2	34378	9.53	0.021967610773
2	34378	9.53	0.021063269535
2	34378	9.53	0.016277967037999
2	34421	9.54	0.036185300335999
2	34421	9.54	0.016410260242999
2	34421	9.54	0.011768224333998
2	34421	9.54	0.011282540677
2	34421	9.54	0.010809017527999
2	34421	9.54	0.029290595797999
2	34466	9.55	0.024293376873999
2	34466	9.55	0.015617854347999
2	34466	9.55	0.012460615994
2	34466	9.55	0.011844673981999
2	34466	9.55	0.025132954670999
2	34466	9.55	0.023805353337998
2	34466	9.55	0.013944392379999
2	34466	9.55	0.021998480399999
2	34466	9.55	0.019316297844998
2	34466	9.55	0.014380810916998
2	34466	9.55	0.011736779812999
2	34466	9.55	0.010464216806
2	34466	9.55	0.0426276901
2	34466	9.55	0.025760462570998
2	34466	9.55	0.011162371823
2	34503	9.56	0.044869389141001
2	34503	9.56	0.043930863041
2	34503	9.56	0.043462901409001
2	34503	9.56	0.042220149711001
2	34503	9.56	0.027716814382
2	34503	9.56	0.014421244942001
2	34503	9.56	0.011793471483001
2	34503	9.56	0.010624172386001
2	34503	9.56	0.011064131002001
2	34503	9.56	0.020665267561
2	34503	9.56	0.016423340894001
2	34503	9.56	0.040400588009001
2	34503	9.56	0.037176414388
2	34503	9.56	0.031010290302001
2	34503	9.56	0.026917368406
2	34503	9.56	0.022973542905001
2	34548	9.57	0.028621530400001
2	34548	9.57	0.025849423130001
2	34548	9.57	0.025028317633
2	34548	9.57	0.011134390187001
2	34548	9.57	0.055067922049
2	34548	9.57	0.043922743924
2	34548	9.57	0.042291989129
2	34548	9.57	0.038726607595001
2	34548	9.57	0.028711218946
2	34548	9.57	0.024616866589
2	34548	9.57	0.022845112584001
2	34548	9.57	0.020021715317
2	34548	9.57	0.016163859002001
2	34548	9.57	0.049477767906
2	34548	9.57	0.048017792461
2	34548	9.57	0.047047801386
2	34548	9.57	0.03807512709
2	34548	9.57	0.025459412662
2	34548	9.57	0.018509012802001
2	34548	9.57	0.014390186611001
2	34548	9.57	0.043141083869001
2	34548	9.57	0.030244930182
2	34548	9.57	0.026157096329001
2	34548	9.57	0.011805983745001
2	34581	9.58	0.015491633843
2	34581	9.58	0.013955076988001
2	34581	9.58	0.029587697490001
2	34581	9.58	0.028400650276
2	34581	9.58	0.015829548257001
2	34581	9.58	0.027752041698001
2	34581	9.58	0.026638897121
2	34581	9.58	0.022620904448001
2	34608	9.59	0.027961557735001
2	34608	9.59	0.021860050411
2	34608	9.59	0.021602297169
2	34608	9.59	0.014020158048
2	34608	9.59	0.029635091232
2	34608	9.59	0.026443730674
2	34608	9.59	0.024638951111999
2	34608	9.59	0.02288117769
2	34608	9.59	0.021816153507
2	34608	9.59	0.029604901562999
2	34608	9.59	0.021954149289
2	34608	9.59	0.019014514549999
2	34608	9.59	0.026231342622999
2	34608	9.59	0.010089354827
2	34608	9.59	0.019005584123001
2	34647	9.6	0.032428463357
2	34647	9.6	0.030194807799999
2	34647	9.6	0.020443002687999
2	34647	9.6	0.013424758807
2	34647	9.6	0.017364711725
2	34647	9.6	0.04277420263
2	34647	9.6	0.040909039538001
2	34647	9.6	0.034252204477999
2	34647	9.6	0.026896550236
2	34647	9.6	0.026326957981
2	34647	9.6	0.023751619869
2	34647	9.6	0.022807704422
2	34647	9.6	0.021485145605
2	34647	9.6	0.015410231448
2	34647	9.6	0.058120808957
2	34647	9.6	0.057207481208
2	34647	9.6	0.052510691158
2	34647	9.6	0.041226468909001
2	34647	9.6	0.021977647363
2	34647	9.6	0.017714665984
2	34647	9.6	0.011863919121
2	34647	9.6	0.016204973996
2	34647	9.6	0.019331415738
2	34684	9.61	0.019363324192
2	34684	9.61	0.016943345439
2	34684	9.61	0.016170504288
2	34684	9.61	0.015881226595999
2	34684	9.61	0.011011440296999
2	34684	9.61	0.010795542913
2	34684	9.61	0.016904779581999
2	34684	9.61	0.014288058530999
2	34684	9.61	0.019167449976999
2	34684	9.61	0.018387770123999
2	34684	9.61	0.020737881096
2	34684	9.61	0.018541113498999
2	34684	9.61	0.016804242392
2	34684	9.61	0.015457817138
2	34684	9.61	0.014495654173
2	34727	9.62	0.010072322039999
2	34727	9.62	0.011484964966
2	34727	9.62	0.011090776390999
2	34727	9.62	0.013882847929999
2	34727	9.62	0.017187750881
2	34727	9.62	0.016751088276999
2	34727	9.62	0.014990590721
2	34727	9.62	0.015325963380999
2	34727	9.62	0.018117624898
2	34727	9.62	0.014599244108
2	34727	9.62	0.013252226777999
2	34727	9.62	0.013700904750999
2	34727	9.62	0.012435066888999
2	34754	9.63	0.015782661625
2	34754	9.63	0.012877421365999
2	34754	9.63	0.015019251959998
2	34754	9.63	0.015832053456998
2	34754	9.63	0.015668249309
2	34754	9.63	0.017053382949999
2	34754	9.63	0.016979559985
2	34754	9.63	0.013121642857
2	34754	9.63	0.019745924869
2	34754	9.63	0.016369426444999
2	34754	9.63	0.019509196062
2	34754	9.63	0.014176514444999
2	34754	9.63	0.013666627931999
2	34754	9.63	0.012238492586999
2	34754	9.63	0.019172436432999
2	34754	9.63	0.010699858160999
2	34791	9.64	0.019136388366
2	34791	9.64	0.014454237786001
2	34791	9.64	0.012415541403001
2	34791	9.64	0.016302143438001
2	34791	9.64	0.017914339562001
2	34791	9.64	0.013439392748001
2	34791	9.64	0.010957188863001
2	34828	9.65	0.014677541519001
2	34828	9.65	0.014466110695
2	34828	9.65	0.017655437730001
2	34828	9.65	0.018593191917001
2	34828	9.65	0.022736426642
2	34863	9.66	0.024463119076
2	34863	9.66	0.022052733503001
2	34863	9.66	0.016071442877001
2	34863	9.66	0.013841013463001
2	34863	9.66	0.015094800977
2	34863	9.66	0.029064963487
2	34863	9.66	0.01312823962
2	34863	9.66	0.013866150062
2	34863	9.66	0.027132129575
2	34863	9.66	0.019248038383001
2	34863	9.66	0.019632874416001
2	34896	9.67	0.019269401806
2	34896	9.67	0.016976111287001
2	34896	9.67	0.015891520675
2	34896	9.67	0.010394026450999
2	34896	9.67	0.012405058595
2	34896	9.67	0.019340792052001
2	34896	9.67	0.012846363891001
2	34896	9.67	0.016849061889999
2	34925	9.68	0.046670384585999
2	34925	9.68	0.04093674019
2	34925	9.68	0.040399587693001
2	34925	9.68	0.039129374122
2	34925	9.68	0.031817441424
2	34925	9.68	0.021555901683
2	34925	9.68	0.013386480757999
2	34925	9.68	0.012002875797
2	34925	9.68	0.048112554689
2	34925	9.68	0.045358294087
2	34946	9.69	0.049827396864
2	34946	9.69	0.030008149779
2	34946	9.69	0.047055543277999
2	34946	9.69	0.034625663093999
2	34946	9.69	0.025896858831
2	34946	9.69	0.031276182868
2	34946	9.69	0.013367078410999
2	34983	9.7	0.035469813416
2	34983	9.7	0.031647373054
2	34983	9.7	0.022804774038999
2	34983	9.7	0.019683304461999
2	34983	9.7	0.012365760931999
2	34983	9.7	0.039943134308999
2	34983	9.7	0.036749568850999
2	34983	9.7	0.032843931106999
2	34983	9.7	0.025984184447999
2	34983	9.7	0.013594937141999
2	35020	9.71	0.039331845464
2	35020	9.71	0.036930621064998
2	35020	9.71	0.048338436261
2	35020	9.71	0.018618943752999
2	35065	9.72	0.028713768134001
2	35065	9.72	0.020408694816
2	35065	9.72	0.052576048883001
2	35065	9.72	0.050596266417001
2	35065	9.72	0.042145757662
2	35065	9.72	0.029809512212001
2	35065	9.72	0.024273075895001
2	35065	9.72	0.020038136855002
2	35065	9.72	0.017053701497002
2	35065	9.72	0.029653493169
2	35065	9.72	0.011892084611
2	35065	9.72	0.033404666928002
2	35065	9.72	0.016014111030001
2	35065	9.72	0.047259597273001
2	35065	9.72	0.044908188912
2	35065	9.72	0.021283296965001
2	35065	9.72	0.01794916493
2	35065	9.72	0.078565986297001
2	35065	9.72	0.072132556613001
2	35065	9.72	0.019908510136
2	35065	9.72	0.028138529486
2	35065	9.72	0.016987151233002
2	35065	9.72	0.012610765420002
2	35065	9.72	0.010499240191001
2	35065	9.72	0.021406955515001
2	35102	9.73	0.011537536334
2	35102	9.73	0.019370358759002
2	35102	9.73	0.01158498134
2	35102	9.73	0.018305814476001
2	35102	9.73	0.016834462976
2	35102	9.73	0.013208220635001
2	35102	9.73	0.022349411029001
2	35102	9.73	0.020255470518
2	35102	9.73	0.018549015579001
2	35102	9.73	0.010619155094
2	35102	9.73	0.052291932008
2	35102	9.73	0.043817015219
2	35102	9.73	0.037679991182001
2	35151	9.74	0.022280896399
2	35151	9.74	0.021782607745001
2	35151	9.74	0.010777142176
2	35151	9.74	0.01024347992
2	35151	9.74	0.02653187706
2	35151	9.74	0.020420342005
2	35151	9.74	0.027910604451
2	35151	9.74	0.020897889483001
2	35151	9.74	0.019995478322
2	35151	9.74	0.038241782524
2	35151	9.74	0.026905371291001
2	35151	9.74	0.019941339985001
2	35151	9.74	0.01287090356
2	35151	9.74	0.010102334542001
2	35151	9.74	0.017974027207
2	35151	9.74	0.017751725643
2	35151	9.74	0.018724993556001
2	35151	9.74	0.047511284873
2	35186	9.75	0.013070777179999
2	35186	9.75	0.010432170448
2	35186	9.75	0.015233188662
2	35186	9.75	0.022985093617001
2	35186	9.75	0.020599273848001
2	35186	9.75	0.014964818369
2	35186	9.75	0.017855336208001
2	35186	9.75	0.011107028362
2	35186	9.75	0.011369294776999
2	35186	9.75	0.019828818126999
2	35186	9.75	0.019045246935001
2	35186	9.75	0.017836408707
2	35186	9.75	0.016068378435
2	35186	9.75	0.015135544882
2	35186	9.75	0.018535139956001
2	35186	9.75	0.056221914836
2	35186	9.75	0.047503467043001
2	35186	9.75	0.040999463688999
2	35217	9.76	0.018926273289001
2	35217	9.76	0.013482982439999
2	35217	9.76	0.019309250928
2	35217	9.76	0.016469460251001
2	35217	9.76	0.013939018903001
2	35217	9.76	0.010369889691001
2	35217	9.76	0.019446652271
2	35217	9.76	0.027987132001
2	35217	9.76	0.027175102625
2	35217	9.76	0.025352957898001
2	35217	9.76	0.017870062124
2	35217	9.76	0.017600420899999
2	35217	9.76	0.047822956274
2	35217	9.76	0.046930087472999
2	35217	9.76	0.032824595734001
2	35217	9.76	0.030569260461
2	35217	9.76	0.027047103294001
2	35217	9.76	0.022374677735
2	35217	9.76	0.021287196508
2	35217	9.76	0.01844114635
2	35217	9.76	0.013916997211
2	35217	9.76	0.010273368135
2	35246	9.77	0.01714802331
2	35246	9.77	0.015803458405999
2	35246	9.77	0.011947484929999
2	35246	9.77	0.018033454017999
2	35246	9.77	0.01951588997
2	35246	9.77	0.010400992000999
2	35246	9.77	0.011437896874
2	35246	9.77	0.017910556903999
2	35246	9.77	0.01437329761
2	35246	9.77	0.018613701925
2	35277	9.78	0.016395625435999
2	35277	9.78	0.016968045878
2	35277	9.78	0.011953115008
2	35277	9.78	0.019639298263
2	35277	9.78	0.013665065691999
2	35277	9.78	0.019623252453
2	35277	9.78	0.012683412419999
2	35277	9.78	0.018760037938
2	35277	9.78	0.016879238237999
2	35320	9.79	0.018892328471999
2	35320	9.79	0.01843202621
2	35320	9.79	0.018053597786999
2	35320	9.79	0.011921356999
2	35320	9.79	0.0176714249
2	35320	9.79	0.018861849736
2	35320	9.79	0.010371137292999
2	35320	9.79	0.017739361649999
2	35369	9.8	0.018002331588999
2	35369	9.8	0.015529062817999
2	35369	9.8	0.011433550212999
2	35369	9.8	0.018493375182999
2	35369	9.8	0.017454385344999
2	35369	9.8	0.01933703512
2	35369	9.8	0.014181198987998
2	35369	9.8	0.015726064578999
2	35369	9.8	0.013060472784
2	35369	9.8	0.011537186473999
2	35369	9.8	0.024698581846
2	35369	9.8	0.015146688065999
2	35369	9.8	0.013805358360999
2	35396	9.81	0.016711083736
2	35396	9.81	0.013807082203
2	35396	9.81	0.011530569399001
2	35396	9.81	0.017143664485001
2	35396	9.81	0.014486619168
2	35396	9.81	0.011191805685002
2	35396	9.81	0.0145365651
2	35396	9.81	0.035518858273001
2	35396	9.81	0.02481685623
2	35396	9.81	0.023321904284
2	35396	9.81	0.015520271955001
2	35396	9.81	0.013427972216
2	35396	9.81	0.010765320381001
2	35396	9.81	0.016731871614001
2	35396	9.81	0.015885283932001
2	35396	9.81	0.014361662892
2	35396	9.81	0.013802838033001
2	35396	9.81	0.010766168070001
2	35433	9.82	0.018435765742
2	35433	9.82	0.016717389348001
2	35433	9.82	0.012228230939
2	35433	9.82	0.012043266865
2	35433	9.82	0.010820301252
2	35433	9.82	0.013765127804
2	35433	9.82	0.037699688506001
2	35433	9.82	0.035190407922
2	35433	9.82	0.021119148295
2	35433	9.82	0.015002208172
2	35433	9.82	0.014186354381
2	35433	9.82	0.029023223206
2	35433	9.82	0.028957953913
2	35433	9.82	0.023896521784
2	35468	9.83	0.012201264994001
2	35468	9.83	0.011264168407001
2	35468	9.83	0.012923288385
2	35468	9.83	0.019306095401999
2	35468	9.83	0.014190099732
2	35468	9.83	0.013726825851
2	35468	9.83	0.011355880267001
2	35468	9.83	0.018203682520999
2	35468	9.83	0.015892441913
2	35468	9.83	0.019458776709
2	35468	9.83	0.018749011115
2	35509	9.84	0.018130557954001
2	35509	9.84	0.017591615022001
2	35509	9.84	0.017409713103
2	35509	9.84	0.018253639786
2	35509	9.84	0.017388463266
2	35509	9.84	0.017227015172001
2	35509	9.84	0.010638640771001
2	35509	9.84	0.021600301379999
2	35538	9.85	0.019208275287999
2	35538	9.85	0.019485314005999
2	35538	9.85	0.01039613212
2	35538	9.85	0.014491266594
2	35538	9.85	0.013175811196
2	35538	9.85	0.024194246586999
2	35538	9.85	0.024324942413999
2	35538	9.85	0.021937383220999
2	35538	9.85	0.023526601643999
2	35538	9.85	0.019932971911
2	35538	9.85	0.015103919447
2	35538	9.85	0.018351209749
2	35538	9.85	0.010584665671999
2	35567	9.86	0.013237202155
2	35567	9.86	0.012642693675
2	35567	9.86	0.024134660651999
2	35567	9.86	0.021526657834
2	35567	9.86	0.019441070125
2	35567	9.86	0.014660762236
2	35567	9.86	0.041233561369999
2	35567	9.86	0.035432978427
2	35567	9.86	0.02745636659
2	35567	9.86	0.020533199649
2	35567	9.86	0.016497937492
2	35567	9.86	0.011114646125
2	35567	9.86	0.018884948739
2	35567	9.86	0.023366872556
2	35592	9.87	0.021633049401
2	35592	9.87	0.010914126784
2	35592	9.87	0.013041181844999
2	35592	9.87	0.018164330253999
2	35592	9.87	0.014531040303
2	35592	9.87	0.017685036649999
2	35592	9.87	0.031946324143
2	35625	9.88	0.011573074902
2	35625	9.88	0.015062504679999
2	35625	9.88	0.016759408827999
2	35625	9.88	0.015298429396999
2	35660	9.89	0.010758615024001
2	35660	9.89	0.015935723498
2	35660	9.89	0.029047759896001
2	35660	9.89	0.017700710597001
2	35660	9.89	0.015132064765
2	35660	9.89	0.013730305018001
2	35660	9.89	0.010700423114001
2	35660	9.89	0.037236518008001
2	35660	9.89	0.030100062054
2	35687	9.9	0.019009167043
2	35687	9.9	0.018327259064
2	35687	9.9	0.018187428112
2	35687	9.9	0.014154182179
2	35687	9.9	0.015473791389001
2	35687	9.9	0.011106865617
2	35687	9.9	0.045815500701
2	35687	9.9	0.032645913722
2	35687	9.9	0.023520427135001
2	35687	9.9	0.019587209476001
2	35687	9.9	0.059381550703
2	35730	9.91	0.016667951411
2	35730	9.91	0.019079546307001
2	35730	9.91	0.026605838935
2	35730	9.91	0.017006188162
2	35730	9.91	0.026193108786
2	35763	9.92	0.015482946892
2	35763	9.92	0.02131538715
2	35763	9.92	0.020032826649
2	35763	9.92	0.016254722298999
2	35763	9.92	0.019442987947
2	35763	9.92	0.014556559371
2	35763	9.92	0.017865987703001
2	35763	9.92	0.022696636134
2	35763	9.92	0.014389235604
2	35763	9.92	0.0158880632
2	35763	9.92	0.018303387911001
2	35763	9.92	0.01565833597
2	35763	9.92	0.011618147509001
2	35788	9.93	0.016714070217001
2	35788	9.93	0.011213028089999
2	35788	9.93	0.017683032419001
2	35788	9.93	0.022152640671999
2	35788	9.93	0.015771375009001
2	35788	9.93	0.012544256751999
2	35788	9.93	0.010917914992
2	35788	9.93	0.013240784008
2	35788	9.93	0.010638642525
2	35788	9.93	0.022324373175
2	35788	9.93	0.042110216943
2	35788	9.93	0.032228986510001
2	35788	9.93	0.022977508957
2	35788	9.93	0.022829174341
2	35788	9.93	0.022053872593
2	35788	9.93	0.015064817246
2	35788	9.93	0.011470179155999
2	35788	9.93	0.079500180347999
2	35788	9.93	0.062495984856
2	35788	9.93	0.059679106540999
2	35788	9.93	0.057417067446
2	35788	9.93	0.053833429777001
2	35815	9.94	0.012008719778001
2	35815	9.94	0.013145818445
2	35815	9.94	0.017466610519
2	35815	9.94	0.015333289212
2	35815	9.94	0.017893485343
2	35815	9.94	0.011349504828999
2	35815	9.94	0.013549922851
2	35815	9.94	0.06129459093
2	35815	9.94	0.058102965230999
2	35815	9.94	0.057315677906999
2	35815	9.94	0.049157794861999
2	35815	9.94	0.031166725062
2	35844	9.95	0.018429587810999
2	35844	9.95	0.015844051005999
2	35844	9.95	0.019552839351
2	35844	9.95	0.018368100264
2	35871	9.96	0.010797982059
2	35871	9.96	0.017172519839999
2	35871	9.96	0.042032259998999
2	35898	9.97	0.021578535010001
2	35898	9.97	0.016886984412
2	35898	9.97	0.014855192848001
2	35898	9.97	0.013420687901
2	35898	9.97	0.024682268785002
2	35898	9.97	0.024364911098001
2	35898	9.97	0.014060428691002
2	35898	9.97	0.024789704246
2	35898	9.97	0.011572761662
2	35898	9.97	0.028477380267001
2	35898	9.97	0.015546645489001
2	35898	9.97	0.037881815806001
2	35898	9.97	0.037516969606001
2	35935	9.98	0.013552207324
2	35935	9.98	0.011513844163
2	35935	9.98	0.011261799491001
2	35935	9.98	0.015018725821001
2	35935	9.98	0.01349213017
2	35935	9.98	0.016574574956001
2	35935	9.98	0.049979206268
2	35935	9.98	0.042666105487001
2	35935	9.98	0.032608663579001
2	35935	9.98	0.030312789696001
2	35935	9.98	0.021588329493001
2	35935	9.98	0.019130598810001
2	35935	9.98	0.010098160568001
2	35935	9.98	0.023174883407
2	35962	9.99	0.014905090200001
2	35962	9.99	0.011116145955
2	35962	9.99	0.010286286051
2	35962	9.99	0.010166386715001
2	35962	9.99	0.015911035517
2	36003	10	0.027407552916999
2	36003	10	0.024414553778
2	36003	10	0.022201736624
2	36003	10	0.015302511733999
2	36003	10	0.02992777024
2	36003	10	0.023451683347
2	36003	10	0.022203225644001
2	36003	10	0.023344001323
2	36003	10	0.013110588911001
2	36003	10	0.012681860998001
2	36003	10	0.019815864497
2	36003	10	0.014641367619999
2	36003	10	0.011439298632

