version 2
run General-0-20191215-12:25:07-14736
attr configname General
attr datetime 20191215-12:25:07
attr experiment General
attr inifile omnetpp.ini
attr iterationvars ""
attr iterationvarsf ""
attr measurement ""
attr network CellularNetwork
attr processid 14736
attr repetition 0
attr replication #0
attr resultdir results
attr runnumber 0
attr seedset 0
param **.nUsers 15
param **.antenna.timeslot 1s

scalar CellularNetwork.antenna responseTime:mean nan
attr source responseTime

