file 34996230 1579793138                                        
version 2
run General-5-20200123-16:25:21-45168
attr configname General
attr datetime 20200123-16:25:21
attr experiment General
attr inifile omnetpp.ini
attr iterationvars ""
attr iterationvarsf ""
attr measurement ""
attr network CellularNetwork
attr processid 45168
attr repetition 5
attr replication #5
attr resultdir results
attr runnumber 5
attr seedset 5
param **.nUsers 10
param **.antenna.timeslot 1ms
param **.antenna.lambda 0.1ms

vector 0 CellularNetwork.antenna responseTime:vector ETV
attr source responseTime
vector 1 CellularNetwork.antenna throughput:vector ETV
attr source throughput
vector 2 CellularNetwork.antenna NumServedUser:vector ETV
attr source NumServedUser
vector 3 CellularNetwork.antenna tptUser-0:vector ETV
vector 4 CellularNetwork.antenna tptUser-1:vector ETV
vector 5 CellularNetwork.antenna tptUser-2:vector ETV
vector 6 CellularNetwork.antenna tptUser-3:vector ETV
vector 7 CellularNetwork.antenna tptUser-4:vector ETV
vector 8 CellularNetwork.antenna tptUser-5:vector ETV
vector 9 CellularNetwork.antenna tptUser-6:vector ETV
vector 10 CellularNetwork.antenna tptUser-7:vector ETV
vector 11 CellularNetwork.antenna tptUser-8:vector ETV
vector 12 CellularNetwork.antenna tptUser-9:vector ETV
0	1264 967635 109 37623 0.001 0.34 32768 0.001 0.054842658289 291.62908435668 4.7461823699538
0	968899 985729 37623 74363 0.34 0.671 32768 0.001000046894 0.062423814077 474.05183082864 12.844631191701
0	1954628 1007057 74363 110452 0.671 0.997 32768 0.001001323743 0.065718646701 393.99390525951 9.2064597858899
0	2961685 1046778 110452 147730 0.997 1.331 32768 0.0010000887499999 0.051256681206 449.13713253357 10.136774660329
0	4008463 1049775 147730 183230 1.331 1.648 32768 0.0010000986409999 0.08350471017 513.26854898237 17.735543427858
0	5058238 1043739 183230 220190 1.648 1.979 32768 0.0010008671270001 0.065084153904 539.28260406051 16.05033290386
0	6101977 1050706 220190 256525 1.979 2.308 32768 0.0010002110160001 0.057223636456 562.72285340805 15.76485390784
0	7152683 1062919 256525 292429 2.308 2.63 32768 0.0010000107239998 0.061183157623 447.48037230804 11.062584324493
0	8215602 1059634 292429 329216 2.63 2.961 32768 0.0010010642010001 0.056939744497 495.91887428734 13.073011885384
0	9275236 1055359 329216 365477 2.961 3.287 32768 0.001001033174 0.060675028757 538.92361960873 15.72473476646
0	10330595 1055509 365477 402298 3.287 3.619 32768 0.0010003564740004 0.069156519835 574.26703142739 18.429057478437
0	11386104 1055190 402298 438253 3.619 3.944 32768 0.001001006144 0.068165448564 554.88921219167 16.561614594047
0	12441294 1066724 438253 474535 3.944 4.273 32768 0.0010000225819997 0.048692566268 455.13903791019 9.4593164258699
0	13508018 1088098 474535 510154 4.273 4.594 32768 0.0010001974780005 0.045971887275 315.90204960654 4.8836388136207
0	14596116 1074030 510154 546837 4.594 4.922 32768 0.0010002297979996 0.055718867304001 451.79667681956 10.097506104633
0	15670146 1080836 546837 582872 4.922 5.244 32768 0.0010000757059991 0.044979580318 374.22266107063 6.9453241265016
0	16750982 1091450 582872 619862 5.244 5.579 32768 0.0010002134290001 0.046302930499 343.92891939651 6.8224663118319
0	17842432 1082223 619862 656068 5.579 5.905 32768 0.001000021247 0.047422356449999 397.51962664533 7.9492798424171
0	18924655 1076259 656068 691971 5.905 6.228 32768 0.0010001624200004 0.057260084339 479.56268991274 12.576068125806
0	20000914 1092064 691971 728769 6.228 6.562 32768 0.0010002239619995 0.052534101727 356.10648234932 7.4549108007546
0	21092978 1089489 728769 765272 6.562 6.891 32768 0.0010002675040006 0.041315671362 347.46112085263 6.2678813045787
0	22182467 1064273 765272 802924 6.891 7.228 32768 0.001000145541 0.055918770291 615.03670823482 18.098259534363
0	23246740 1084858 802924 837511 7.228 7.539 32768 0.0010000022879995 0.056327307905 420.2836264347 10.76159857241
0	24331598 1091884 837511 873662 7.539 7.866 32768 0.0010010963769993 0.038343006348001 314.36506279846 4.9321449479979
0	25423482 1102527 873662 910420 7.866 8.198 32768 0.0010001010050011 0.039444567179 305.14783852236 5.2895590055066
0	26526009 1098326 910420 948066 8.198 8.538 32768 0.001000611696 0.068471562057001 479.71065844635 13.847685505291
0	27624335 1095273 948066 983141 8.538 8.852 32768 0.0010005106170006 0.063317265068999 477.8899579765 11.815824581144
0	28719608 1120946 983141 1019383 8.852 9.178 32768 0.0010002704249992 0.053540780601001 358.51242663342 6.7032711846391
0	29840554 1123193 1019383 1056426 9.178 9.51 32768 0.0010002412379997 0.053216315998 502.22269964497 12.432807795396
0	30963747 1128823 1056426 1093237 9.51 9.844 32768 0.00100003921 0.081611453539001 567.88729999978 21.174128281501
0	32092570 563121 1093237 1110590 9.844 10 16308 0.0010003240119989 0.075403556061 254.46263862222 8.8434336468715
1	32655691 207538 109 1110590 0.001 10 10000 72 12393 38003370 202371850052
2	32863229 178879 109 1110590 0.001 10 10000 1 9 68096 502296
3	33042108 192383 109 1110590 0.001 10 10000 0 2325 3786111 4117122193
4	33234491 192393 109 1110590 0.001 10 10000 0 2325 3791355 4127795833
5	33426884 192387 109 1110590 0.001 10 10000 0 2325 3774461 4075743253
6	33619271 192473 109 1110590 0.001 10 10000 0 2325 3799997 4132890765
7	33811744 192399 109 1110590 0.001 10 10000 0 2325 3815197 4164102081
8	34004143 192215 109 1110590 0.001 10 10000 0 2325 3814544 4204072200
9	34196358 192404 109 1110590 0.001 10 10000 0 2325 3822486 4218558630
10	34388762 202416 109 1110590 0.001 10 10000 0 2325 3786189 4075212951
11	34591178 202536 109 1110590 0.001 10 10000 0 2325 3817175 4117956775
12	34793714 202514 109 1110590 0.001 10 10000 0 2324 3795855 4110704259

