version 2
run General-0-20191226-12:06:50-7764
attr configname General
attr datetime 20191226-12:06:50
attr experiment General
attr inifile omnetpp.ini
attr iterationvars ""
attr iterationvarsf ""
attr measurement ""
attr network CellularNetwork
attr processid 7764
attr repetition 0
attr replication #0
attr resultdir results
attr runnumber 0
attr seedset 0
param **.nUsers 10
param **.antenna.timeslot 0.01s
param **.user[*].lambda 0.008s

vector 0 CellularNetwork.antenna throughput:vector ETV
attr source throughput
vector 1 CellularNetwork.antenna NumServedUser:vector ETV
attr source NumServedUser
vector 2 CellularNetwork.antenna tptUser-0:vector ETV
vector 3 CellularNetwork.antenna tptUser-1:vector ETV
vector 4 CellularNetwork.antenna tptUser-2:vector ETV
vector 5 CellularNetwork.antenna tptUser-3:vector ETV
vector 6 CellularNetwork.antenna tptUser-4:vector ETV
vector 7 CellularNetwork.antenna tptUser-5:vector ETV
vector 8 CellularNetwork.antenna tptUser-6:vector ETV
vector 9 CellularNetwork.antenna tptUser-7:vector ETV
vector 10 CellularNetwork.antenna tptUser-8:vector ETV
vector 11 CellularNetwork.antenna tptUser-9:vector ETV
vector 12 CellularNetwork.antenna responseTime:vector ETV
attr source responseTime
0	52	0.01	0
0	87	0.02	739
0	118	0.03	888
0	157	0.04	291
0	198	0.05	342
0	227	0.06	257
0	270	0.07	401
0	303	0.08	351
0	348	0.09	409
0	385	0.1	550
0	424	0.11	633
0	463	0.12	478
0	500	0.13	182
0	539	0.14	318
0	576	0.15	952
0	607	0.16	352
0	652	0.17	431
0	695	0.18	373
0	732	0.19	801
0	767	0.2	633
0	806	0.21	640
0	837	0.22	1025
0	886	0.23	536
0	909	0.24	593
0	944	0.25	379
0	987	0.26	450
0	1016	0.27	557
0	1055	0.28	279
0	1088	0.29	420
0	1129	0.3	491
0	1170	0.31	489
0	1193	0.32	395
0	1226	0.33	202
0	1261	0.34	251
0	1302	0.35	522
0	1339	0.36	136
0	1386	0.37	1039
0	1413	0.38	591
0	1454	0.39	408
0	1485	0.4	172
0	1524	0.41	776
0	1565	0.42	478
0	1600	0.43	608
0	1643	0.44	436
0	1680	0.45	565
0	1705	0.46	468
0	1738	0.47	208
0	1773	0.48	484
0	1816	0.49	292
0	1849	0.5	574
0	1876	0.51	329
0	1903	0.52	187
0	1946	0.53	228
0	1985	0.54	606
0	2022	0.55	614
0	2053	0.56	384
0	2088	0.57	320
0	2127	0.58	810
0	2160	0.59	315
0	2199	0.6	184
0	2236	0.61	564
0	2277	0.62	769
0	2306	0.63	647
0	2333	0.64	193
0	2374	0.65	702
0	2409	0.66	244
0	2444	0.67	403
0	2471	0.68	543
0	2496	0.69	405
0	2533	0.7	140
0	2570	0.71	180
0	2603	0.72	761
0	2640	0.73	385
0	2681	0.74	581
0	2720	0.75	521
0	2761	0.76	559
0	2798	0.77	546
0	2829	0.78	587
0	2862	0.79	487
0	2885	0.8	482
0	2916	0.81	160
0	2961	0.82	412
0	3006	0.83	711
0	3059	0.84	459
0	3100	0.85	627
0	3131	0.86	110
0	3156	0.87	425
0	3197	0.88	761
0	3238	0.89	528
0	3271	0.9	427
0	3314	0.91	357
0	3335	0.92	638
0	3362	0.93	586
0	3405	0.94	308
0	3434	0.95	759
0	3465	0.96	340
0	3498	0.97	239
0	3531	0.98	341
0	3572	0.99	304
0	3603	1	744
0	3636	1.01	473
0	3677	1.02	419
0	3714	1.03	642
0	3751	1.04	228
0	3782	1.05	381
0	3815	1.06	865
0	3846	1.07	334
0	3879	1.08	377
0	3918	1.09	335
0	3961	1.1	212
0	3998	1.11	267
0	4051	1.12	234
0	4086	1.13	396
0	4123	1.14	671
0	4162	1.15	682
0	4203	1.16	729
0	4240	1.17	1093
0	4271	1.18	698
0	4300	1.19	498
0	4337	1.2	284
0	4374	1.21	223
0	4409	1.22	516
0	4452	1.23	515
0	4481	1.24	338
0	4524	1.25	187
0	4561	1.26	535
0	4616	1.27	384
0	4651	1.28	179
0	4692	1.29	250
0	4725	1.3	510
0	4754	1.31	667
0	4797	1.32	349
0	4826	1.33	679
0	4863	1.34	620
0	4894	1.35	821
0	4931	1.36	305
0	4964	1.37	586
0	4987	1.38	189
0	5040	1.39	405
0	5091	1.4	862
0	5126	1.41	373
0	5171	1.42	370
0	5204	1.43	467
0	5227	1.44	477
0	5258	1.45	1301
0	5295	1.46	502
0	5334	1.47	348
0	5371	1.48	440
0	5404	1.49	394
0	5441	1.5	330
0	5478	1.51	596
0	5513	1.52	483
0	5550	1.53	428
0	5587	1.54	323
0	5614	1.55	651
0	5653	1.56	488
0	5692	1.57	429
0	5725	1.58	1080
0	5762	1.59	454
0	5789	1.6	454
0	5828	1.61	215
0	5859	1.62	470
0	5888	1.63	239
0	5911	1.64	642
0	5950	1.65	220
0	5981	1.66	529
0	6020	1.67	569
0	6055	1.68	362
0	6096	1.69	214
0	6123	1.7	630
0	6160	1.71	211
0	6191	1.72	581
0	6224	1.73	777
0	6257	1.74	708
0	6294	1.75	546
0	6329	1.76	225
0	6374	1.77	241
0	6405	1.78	500
0	6440	1.79	357
0	6479	1.8	351
0	6518	1.81	408
0	6553	1.82	578
0	6576	1.83	398
0	6603	1.84	650
0	6630	1.85	182
0	6667	1.86	477
0	6702	1.87	388
0	6741	1.88	586
0	6778	1.89	355
0	6811	1.9	1139
0	6856	1.91	479
0	6887	1.92	579
0	6910	1.93	492
0	6939	1.94	301
0	6970	1.95	322
0	7017	1.96	332
0	7048	1.97	541
0	7089	1.98	370
0	7124	1.99	622
0	7167	2	589
0	7204	2.01	516
0	7245	2.02	188
0	7278	2.03	221
0	7313	2.04	485
0	7344	2.05	876
0	7387	2.06	249
0	7414	2.07	274
0	7455	2.08	555
0	7494	2.09	522
0	7529	2.1	353
0	7576	2.11	202
0	7611	2.12	397
0	7644	2.13	376
0	7681	2.14	575
0	7710	2.15	485
0	7747	2.16	599
0	7776	2.17	469
0	7821	2.18	699
0	7856	2.19	580
0	7899	2.2	503
0	7928	2.21	350
0	7969	2.22	526
0	8008	2.23	556
0	8057	2.24	448
0	8084	2.25	289
0	8123	2.26	841
0	8152	2.27	496
0	8199	2.28	398
0	8240	2.29	360
0	8273	2.3	969
0	8316	2.31	432
0	8347	2.32	688
0	8384	2.33	413
0	8415	2.34	385
0	8456	2.35	366
0	8489	2.36	362
0	8528	2.37	769
0	8561	2.38	619
0	8586	2.39	430
0	8621	2.4	228
0	8664	2.41	395
0	8693	2.42	549
0	8726	2.43	301
0	8755	2.44	449
0	8788	2.45	608
0	8825	2.46	505
0	8856	2.47	247
0	8893	2.48	702
0	8926	2.49	338
0	8947	2.5	207
0	8988	2.51	564
0	9025	2.52	417
0	9058	2.53	517
0	9095	2.54	512
0	9142	2.55	327
0	9169	2.56	289
0	9202	2.57	273
0	9239	2.58	673
0	9278	2.59	546
0	9313	2.6	566
0	9346	2.61	112
0	9395	2.62	717
0	9426	2.63	742
0	9465	2.64	460
0	9490	2.65	457
0	9521	2.66	433
0	9560	2.67	430
0	9587	2.68	497
0	9624	2.69	372
0	9669	2.7	601
0	9720	2.71	225
0	9765	2.72	687
0	9812	2.73	392
0	9853	2.74	734
0	9878	2.75	534
0	9909	2.76	700
0	9946	2.77	867
0	9987	2.78	528
0	10010	2.79	420
0	10051	2.8	189
0	10090	2.81	508
0	10123	2.82	454
0	10156	2.83	541
0	10201	2.84	618
0	10242	2.85	484
0	10285	2.86	628
0	10320	2.87	627
0	10357	2.88	411
0	10388	2.89	319
0	10425	2.9	382
0	10460	2.91	654
0	10495	2.92	437
0	10526	2.93	561
0	10559	2.94	479
0	10592	2.95	277
0	10625	2.96	478
0	10664	2.97	388
0	10713	2.98	618
0	10752	2.99	105
0	10791	3	812
0	10830	3.01	1004
0	10865	3.02	491
0	10900	3.03	438
0	10943	3.04	241
0	10974	3.05	765
0	11011	3.06	362
0	11044	3.07	548
0	11095	3.08	277
0	11138	3.09	189
0	11177	3.1	369
0	11210	3.11	494
0	11231	3.12	143
0	11262	3.13	603
0	11309	3.14	374
0	11344	3.15	605
0	11381	3.16	1018
0	11422	3.17	712
0	11467	3.18	914
0	11510	3.19	577
0	11539	3.2	355
0	11572	3.21	344
0	11611	3.22	483
0	11636	3.23	668
0	11665	3.24	295
0	11706	3.25	213
0	11737	3.26	691
0	11788	3.27	382
0	11823	3.28	483
0	11848	3.29	259
0	11893	3.3	471
0	11922	3.31	716
0	11963	3.32	585
0	12008	3.33	567
0	12041	3.34	576
0	12072	3.35	362
0	12111	3.36	296
0	12154	3.37	680
0	12193	3.38	288
0	12224	3.39	935
0	12255	3.4	299
0	12284	3.41	352
0	12329	3.42	338
0	12360	3.43	601
0	12401	3.44	437
0	12428	3.45	367
0	12485	3.46	635
0	12522	3.47	247
0	12549	3.48	402
0	12576	3.49	557
0	12611	3.5	703
0	12636	3.51	356
0	12669	3.52	525
0	12718	3.53	496
0	12753	3.54	406
0	12788	3.55	805
0	12837	3.56	427
0	12864	3.57	402
0	12901	3.58	498
0	12930	3.59	288
0	12963	3.6	339
0	12998	3.61	439
0	13039	3.62	619
0	13068	3.63	213
0	13109	3.64	404
0	13156	3.65	779
0	13201	3.66	437
0	13242	3.67	401
0	13281	3.68	684
0	13326	3.69	663
0	13359	3.7	584
0	13394	3.71	443
0	13429	3.72	301
0	13472	3.73	691
0	13509	3.74	467
0	13554	3.75	345
0	13585	3.76	794
0	13624	3.77	440
0	13659	3.78	540
0	13694	3.79	352
0	13747	3.8	505
0	13784	3.81	605
0	13843	3.82	469
0	13876	3.83	619
0	13913	3.84	415
0	13946	3.85	323
0	13967	3.86	132
0	13994	3.87	503
0	14033	3.88	263
0	14064	3.89	203
0	14093	3.9	437
0	14138	3.91	383
0	14167	3.92	694
0	14194	3.93	816
0	14235	3.94	300
0	14274	3.95	633
0	14313	3.96	672
0	14354	3.97	313
0	14393	3.98	754
0	14434	3.99	215
0	14461	4	588
0	14496	4.01	532
0	14523	4.02	317
0	14550	4.03	754
0	14583	4.04	260
0	14618	4.05	310
0	14661	4.06	396
0	14696	4.07	537
0	14729	4.08	538
0	14780	4.09	384
0	14813	4.1	748
0	14840	4.11	411
0	14869	4.12	236
0	14918	4.13	248
0	14953	4.14	385
0	14988	4.15	229
0	15025	4.16	628
0	15056	4.17	526
0	15091	4.18	592
0	15122	4.19	577
0	15159	4.2	419
0	15192	4.21	528
0	15235	4.22	441
0	15280	4.23	291
0	15315	4.24	681
0	15346	4.25	505
0	15389	4.26	606
0	15410	4.27	817
0	15461	4.28	88
0	15500	4.29	538
0	15543	4.3	501
0	15572	4.31	380
0	15621	4.32	528
0	15654	4.33	415
0	15699	4.34	755
0	15724	4.35	479
0	15753	4.36	306
0	15780	4.37	707
0	15813	4.38	244
0	15842	4.39	377
0	15877	4.4	565
0	15904	4.41	375
0	15933	4.42	454
0	15966	4.43	370
0	16005	4.44	536
0	16038	4.45	700
0	16073	4.46	343
0	16116	4.47	408
0	16159	4.48	166
0	16206	4.49	992
0	16239	4.5	412
0	16272	4.51	385
0	16315	4.52	404
0	16340	4.53	505
0	16371	4.54	318
0	16414	4.55	280
0	16447	4.56	769
0	16472	4.57	168
0	16513	4.58	572
0	16538	4.59	428
0	16585	4.6	287
0	16616	4.61	389
0	16653	4.62	304
0	16688	4.63	170
0	16725	4.64	343
0	16750	4.65	552
0	16785	4.66	809
0	16820	4.67	512
0	16853	4.68	498
0	16898	4.69	657
0	16933	4.7	359
0	16962	4.71	709
0	16995	4.72	332
0	17036	4.73	255
0	17087	4.74	570
0	17122	4.75	318
0	17175	4.76	706
0	17208	4.77	583
0	17237	4.78	373
0	17270	4.79	476
0	17307	4.8	103
0	17348	4.81	800
0	17383	4.82	516
0	17418	4.83	508
0	17473	4.84	381
0	17512	4.85	380
0	17533	4.86	1080
0	17568	4.87	271
0	17603	4.88	660
0	17642	4.89	461
0	17673	4.9	897
0	17704	4.91	187
0	17741	4.92	466
0	17776	4.93	392
0	17813	4.94	364
0	17844	4.95	477
0	17875	4.96	405
0	17916	4.97	430
0	17943	4.98	763
0	17994	4.99	258
0	18027	5	352
0	18060	5.01	716
0	18089	5.02	427
0	18120	5.03	328
0	18157	5.04	676
0	18202	5.05	333
0	18233	5.06	558
0	18264	5.07	705
0	18297	5.08	491
0	18330	5.09	426
0	18365	5.1	363
0	18412	5.11	340
0	18451	5.12	484
0	18490	5.13	520
0	18517	5.14	869
0	18554	5.15	367
0	18589	5.16	455
0	18630	5.17	475
0	18663	5.18	358
0	18706	5.19	406
0	18745	5.2	873
0	18780	5.21	197
0	18821	5.22	719
0	18844	5.23	646
0	18885	5.24	414
0	18920	5.25	285
0	18947	5.26	429
0	18986	5.27	357
0	19021	5.28	456
0	19044	5.29	465
0	19077	5.3	234
0	19116	5.31	493
0	19155	5.32	484
0	19184	5.33	405
0	19227	5.34	113
0	19262	5.35	532
0	19305	5.36	700
0	19336	5.37	680
0	19369	5.38	335
0	19410	5.39	459
0	19451	5.4	641
0	19486	5.41	369
0	19511	5.42	422
0	19548	5.43	412
0	19581	5.44	233
0	19620	5.45	222
0	19659	5.46	185
0	19698	5.47	1058
0	19735	5.48	333
0	19778	5.49	584
0	19805	5.5	687
0	19852	5.51	197
0	19891	5.52	494
0	19914	5.53	505
0	19951	5.54	432
0	20004	5.55	527
0	20045	5.56	687
0	20076	5.57	718
0	20103	5.58	340
0	20134	5.59	282
0	20175	5.6	462
0	20214	5.61	310
0	20251	5.62	384
0	20292	5.63	832
0	20327	5.64	635
0	20350	5.65	342
0	20383	5.66	496
0	20428	5.67	379
0	20455	5.68	466
0	20490	5.69	292
0	20531	5.7	680
0	20578	5.71	443
0	20609	5.72	529
0	20658	5.73	608
0	20683	5.74	630
0	20724	5.75	172
0	20751	5.76	626
0	20770	5.77	757
0	20809	5.78	259
0	20864	5.79	203
0	20903	5.8	500
0	20954	5.81	663
0	20991	5.82	631
0	21022	5.83	735
0	21059	5.84	308
0	21090	5.85	299
0	21137	5.86	631
0	21166	5.87	526
0	21199	5.88	929
0	21232	5.89	262
0	21261	5.9	491
0	21294	5.91	699
0	21341	5.92	479
0	21374	5.93	358
0	21409	5.94	516
0	21436	5.95	320
0	21479	5.96	597
0	21524	5.97	1054
0	21557	5.98	627
0	21596	5.99	375
0	21635	6	614
0	21666	6.01	250
0	21691	6.02	637
0	21752	6.03	277
0	21785	6.04	801
0	21810	6.05	389
0	21839	6.06	408
0	21880	6.07	724
0	21925	6.08	407
0	21962	6.09	291
0	21997	6.1	692
0	22028	6.11	349
0	22071	6.12	429
0	22108	6.13	953
0	22137	6.14	553
0	22166	6.15	313
0	22209	6.16	185
0	22234	6.17	702
0	22271	6.18	282
0	22304	6.19	585
0	22349	6.2	357
0	22386	6.21	405
0	22429	6.22	647
0	22468	6.23	648
0	22499	6.24	233
0	22524	6.25	490
0	22555	6.26	233
0	22590	6.27	658
0	22633	6.28	315
0	22672	6.29	533
0	22719	6.3	894
0	22754	6.31	369
0	22797	6.32	350
0	22830	6.33	271
0	22859	6.34	584
0	22898	6.35	579
0	22943	6.36	477
0	22974	6.37	172
0	23005	6.38	868
0	23038	6.39	669
0	23083	6.4	329
0	23118	6.41	732
0	23155	6.42	356
0	23192	6.43	552
0	23239	6.44	488
0	23280	6.45	613
0	23313	6.46	413
0	23354	6.47	656
0	23385	6.48	427
0	23430	6.49	542
0	23459	6.5	246
0	23508	6.51	506
0	23543	6.52	522
0	23588	6.53	487
0	23621	6.54	860
0	23658	6.55	576
0	23685	6.56	478
0	23718	6.57	424
0	23741	6.58	396
0	23794	6.59	326
0	23833	6.6	793
0	23856	6.61	508
0	23895	6.62	346
0	23940	6.63	388
0	23973	6.64	905
0	24006	6.65	365
0	24047	6.66	307
0	24086	6.67	427
0	24125	6.68	705
0	24156	6.69	591
0	24201	6.7	340
0	24240	6.71	319
0	24285	6.72	631
0	24314	6.73	850
0	24355	6.74	345
0	24394	6.75	588
0	24431	6.76	448
0	24468	6.77	206
0	24495	6.78	425
0	24528	6.79	353
0	24567	6.8	609
0	24600	6.81	579
0	24631	6.82	789
0	24670	6.83	606
0	24699	6.84	413
0	24734	6.85	317
0	24767	6.86	337
0	24814	6.87	288
0	24849	6.88	395
0	24884	6.89	630
0	24919	6.9	606
0	24948	6.91	455
0	25001	6.92	369
0	25052	6.93	639
0	25093	6.94	451
0	25134	6.95	448
0	25175	6.96	264
0	25218	6.97	950
0	25249	6.98	679
0	25282	6.99	623
0	25309	7	397
0	25346	7.01	304
0	25391	7.02	500
0	25434	7.03	408
0	25471	7.04	517
0	25504	7.05	946
0	25537	7.06	197
0	25580	7.07	459
0	25605	7.08	534
0	25648	7.09	495
0	25691	7.1	611
0	25722	7.11	586
0	25753	7.12	385
0	25794	7.13	542
0	25825	7.14	639
0	25858	7.15	267
0	25895	7.16	353
0	25940	7.17	230
0	25975	7.18	289
0	26020	7.19	488
0	26053	7.2	799
0	26078	7.21	536
0	26127	7.22	296
0	26154	7.23	965
0	26191	7.24	263
0	26224	7.25	498
0	26269	7.26	210
0	26318	7.27	783
0	26357	7.28	280
0	26406	7.29	404
0	26449	7.3	625
0	26486	7.31	487
0	26517	7.32	704
0	26554	7.33	692
0	26589	7.34	503
0	26624	7.35	648
0	26667	7.36	549
0	26706	7.37	699
0	26737	7.38	332
0	26780	7.39	687
0	26811	7.4	778
0	26852	7.41	300
0	26879	7.42	396
0	26918	7.43	481
0	26941	7.44	572
0	26966	7.45	266
0	27001	7.46	305
0	27024	7.47	159
0	27073	7.48	274
0	27102	7.49	787
0	27125	7.5	422
0	27156	7.51	321
0	27189	7.52	641
0	27228	7.53	506
0	27265	7.54	488
0	27314	7.55	279
0	27347	7.56	747
0	27378	7.57	524
0	27423	7.58	310
0	27456	7.59	690
0	27493	7.6	261
0	27532	7.61	478
0	27569	7.62	551
0	27618	7.63	249
0	27653	7.64	570
0	27692	7.65	580
0	27725	7.66	212
0	27764	7.67	772
0	27789	7.68	582
0	27826	7.69	167
0	27861	7.7	368
0	27894	7.71	369
0	27923	7.72	594
0	27958	7.73	467
0	27995	7.74	448
0	28026	7.75	357
0	28055	7.76	725
0	28098	7.77	150
0	28123	7.78	629
0	28164	7.79	242
0	28199	7.8	595
0	28232	7.81	782
0	28265	7.82	460
0	28306	7.83	440
0	28339	7.84	496
0	28362	7.85	599
0	28393	7.86	212
0	28428	7.87	324
0	28459	7.88	627
0	28496	7.89	366
0	28535	7.9	346
0	28568	7.91	579
0	28609	7.92	358
0	28652	7.93	331
0	28689	7.94	572
0	28716	7.95	143
0	28745	7.96	238
0	28768	7.97	673
0	28793	7.98	352
0	28830	7.99	868
0	28853	8	394
0	28912	8.01	367
0	28941	8.02	460
0	28964	8.03	556
0	28999	8.04	495
0	29028	8.05	514
0	29075	8.06	578
0	29114	8.07	661
0	29147	8.08	392
0	29184	8.09	575
0	29227	8.1	258
0	29264	8.11	772
0	29305	8.12	464
0	29332	8.13	323
0	29367	8.14	493
0	29416	8.15	248
0	29449	8.16	933
0	29484	8.17	445
0	29509	8.18	323
0	29546	8.19	225
0	29581	8.2	318
0	29602	8.21	672
0	29643	8.22	250
0	29670	8.23	285
0	29717	8.24	578
0	29754	8.25	453
0	29797	8.26	435
0	29838	8.27	402
0	29887	8.28	528
0	29928	8.29	297
0	29969	8.3	1154
0	30010	8.31	235
0	30043	8.32	404
0	30074	8.33	399
0	30111	8.34	825
0	30146	8.35	442
0	30201	8.36	579
0	30246	8.37	641
0	30291	8.38	461
0	30332	8.39	482
0	30365	8.4	824
0	30396	8.41	601
0	30433	8.42	397
0	30458	8.43	519
0	30491	8.44	285
0	30528	8.45	507
0	30567	8.46	470
0	30608	8.47	445
0	30637	8.48	478
0	30658	8.49	461
0	30695	8.5	235
0	30746	8.51	488
0	30781	8.52	288
0	30826	8.53	570
0	30853	8.54	505
0	30888	8.55	131
0	30937	8.56	834
0	30968	8.57	312
0	31005	8.58	503
0	31042	8.59	454
0	31063	8.6	713
0	31098	8.61	248
0	31149	8.62	475
0	31184	8.63	550
0	31223	8.64	468
0	31258	8.65	572
0	31303	8.66	432
0	31336	8.67	558
0	31379	8.68	453
0	31412	8.69	634
0	31463	8.7	433
0	31500	8.71	650
0	31531	8.72	237
0	31562	8.73	392
0	31607	8.74	478
0	31646	8.75	917
0	31673	8.76	390
0	31716	8.77	294
0	31763	8.78	689
0	31792	8.79	443
0	31833	8.8	541
0	31870	8.81	396
0	31907	8.82	409
0	31944	8.83	527
0	31977	8.84	526
0	32026	8.85	448
0	32067	8.86	663
0	32112	8.87	508
0	32153	8.88	546
0	32186	8.89	523
0	32217	8.9	328
0	32248	8.91	394
0	32275	8.92	557
0	32314	8.93	314
0	32345	8.94	439
0	32392	8.95	372
0	32433	8.96	398
0	32476	8.97	484
0	32501	8.98	1137
0	32538	8.99	319
0	32569	9	426
0	32616	9.01	453
0	32657	9.02	758
0	32690	9.03	404
0	32733	9.04	280
0	32782	9.05	374
0	32817	9.06	125
0	32850	9.07	246
0	32885	9.08	496
0	32926	9.09	311
0	32967	9.1	734
0	32996	9.11	334
0	33033	9.12	490
0	33052	9.13	622
0	33081	9.14	823
0	33126	9.15	399
0	33153	9.16	388
0	33190	9.17	499
0	33229	9.18	240
0	33266	9.19	383
0	33309	9.2	1070
0	33348	9.21	518
0	33373	9.22	521
0	33398	9.23	356
0	33427	9.24	692
0	33460	9.25	335
0	33495	9.26	478
0	33532	9.27	436
0	33567	9.28	565
0	33598	9.29	422
0	33639	9.3	401
0	33670	9.31	554
0	33707	9.32	435
0	33738	9.33	269
0	33767	9.34	672
0	33814	9.35	418
0	33847	9.36	658
0	33878	9.37	436
0	33909	9.38	203
0	33942	9.39	459
0	33977	9.4	322
0	34010	9.41	685
0	34049	9.42	497
0	34086	9.43	462
0	34131	9.44	384
0	34162	9.45	347
0	34183	9.46	667
0	34210	9.47	141
0	34253	9.48	338
0	34284	9.49	511
0	34321	9.5	732
0	34350	9.51	401
0	34377	9.52	312
0	34424	9.53	176
0	34457	9.54	445
0	34488	9.55	384
0	34521	9.56	389
0	34550	9.57	475
0	34585	9.58	409
0	34616	9.59	499
0	34653	9.6	447
0	34700	9.61	436
0	34733	9.62	601
0	34778	9.63	582
0	34821	9.64	195
0	34870	9.65	545
0	34893	9.66	914
0	34930	9.67	384
0	34959	9.68	492
0	34992	9.69	288
0	35021	9.7	266
0	35066	9.71	238
0	35099	9.72	801
0	35128	9.73	266
0	35165	9.74	306
0	35202	9.75	598
0	35245	9.76	578
0	35274	9.77	436
0	35305	9.78	375
0	35350	9.79	359
0	35395	9.8	332
0	35428	9.81	529
0	35455	9.82	910
0	35482	9.83	315
0	35507	9.84	167
0	35556	9.85	428
0	35597	9.86	642
0	35628	9.87	596
0	35665	9.88	112
0	35708	9.89	688
0	35741	9.9	593
0	35774	9.91	624
0	35811	9.92	484
0	35846	9.93	581
0	35875	9.94	388
0	35908	9.95	390
0	35955	9.96	213
0	35996	9.97	485
0	36043	9.98	760
0	36078	9.99	750
0	36117	10	463
1	52	0.01	0
1	87	0.02	8
1	118	0.03	8
1	157	0.04	6
1	198	0.05	7
1	227	0.06	4
1	270	0.07	4
1	303	0.08	5
1	348	0.09	3
1	385	0.1	2
1	424	0.11	5
1	463	0.12	4
1	500	0.13	4
1	539	0.14	3
1	576	0.15	8
1	607	0.16	7
1	652	0.17	4
1	695	0.18	6
1	732	0.19	5
1	767	0.2	5
1	806	0.21	7
1	837	0.22	10
1	886	0.23	6
1	909	0.24	5
1	944	0.25	7
1	987	0.26	7
1	1016	0.27	9
1	1055	0.28	6
1	1088	0.29	7
1	1129	0.3	7
1	1170	0.31	10
1	1193	0.32	6
1	1226	0.33	5
1	1261	0.34	6
1	1302	0.35	5
1	1339	0.36	6
1	1386	0.37	8
1	1413	0.38	8
1	1454	0.39	6
1	1485	0.4	4
1	1524	0.41	8
1	1565	0.42	8
1	1600	0.43	9
1	1643	0.44	8
1	1680	0.45	8
1	1705	0.46	8
1	1738	0.47	4
1	1773	0.48	7
1	1816	0.49	6
1	1849	0.5	7
1	1876	0.51	5
1	1903	0.52	4
1	1946	0.53	4
1	1985	0.54	6
1	2022	0.55	6
1	2053	0.56	6
1	2088	0.57	4
1	2127	0.58	6
1	2160	0.59	4
1	2199	0.6	3
1	2236	0.61	7
1	2277	0.62	9
1	2306	0.63	9
1	2333	0.64	6
1	2374	0.65	7
1	2409	0.66	6
1	2444	0.67	6
1	2471	0.68	8
1	2496	0.69	7
1	2533	0.7	4
1	2570	0.71	2
1	2603	0.72	6
1	2640	0.73	7
1	2681	0.74	9
1	2720	0.75	5
1	2761	0.76	8
1	2798	0.77	8
1	2829	0.78	7
1	2862	0.79	5
1	2885	0.8	7
1	2916	0.81	4
1	2961	0.82	6
1	3006	0.83	9
1	3059	0.84	7
1	3100	0.85	9
1	3131	0.86	4
1	3156	0.87	6
1	3197	0.88	7
1	3238	0.89	7
1	3271	0.9	4
1	3314	0.91	3
1	3335	0.92	6
1	3362	0.93	6
1	3405	0.94	5
1	3434	0.95	8
1	3465	0.96	5
1	3498	0.97	7
1	3531	0.98	4
1	3572	0.99	4
1	3603	1	9
1	3636	1.01	7
1	3677	1.02	7
1	3714	1.03	7
1	3751	1.04	5
1	3782	1.05	7
1	3815	1.06	7
1	3846	1.07	8
1	3879	1.08	5
1	3918	1.09	5
1	3961	1.1	2
1	3998	1.11	2
1	4051	1.12	3
1	4086	1.13	4
1	4123	1.14	6
1	4162	1.15	6
1	4203	1.16	7
1	4240	1.17	9
1	4271	1.18	8
1	4300	1.19	8
1	4337	1.2	5
1	4374	1.21	5
1	4409	1.22	6
1	4452	1.23	7
1	4481	1.24	5
1	4524	1.25	3
1	4561	1.26	5
1	4616	1.27	4
1	4651	1.28	1
1	4692	1.29	3
1	4725	1.3	6
1	4754	1.31	6
1	4797	1.32	2
1	4826	1.33	6
1	4863	1.34	4
1	4894	1.35	7
1	4931	1.36	6
1	4964	1.37	8
1	4987	1.38	2
1	5040	1.39	6
1	5091	1.4	7
1	5126	1.41	5
1	5171	1.42	2
1	5204	1.43	4
1	5227	1.44	3
1	5258	1.45	7
1	5295	1.46	7
1	5334	1.47	7
1	5371	1.48	6
1	5404	1.49	5
1	5441	1.5	6
1	5478	1.51	7
1	5513	1.52	6
1	5550	1.53	5
1	5587	1.54	4
1	5614	1.55	6
1	5653	1.56	6
1	5692	1.57	6
1	5725	1.58	8
1	5762	1.59	6
1	5789	1.6	6
1	5828	1.61	5
1	5859	1.62	4
1	5888	1.63	3
1	5911	1.64	9
1	5950	1.65	5
1	5981	1.66	6
1	6020	1.67	5
1	6055	1.68	5
1	6096	1.69	3
1	6123	1.7	8
1	6160	1.71	3
1	6191	1.72	6
1	6224	1.73	6
1	6257	1.74	5
1	6294	1.75	6
1	6329	1.76	5
1	6374	1.77	4
1	6405	1.78	8
1	6440	1.79	6
1	6479	1.8	6
1	6518	1.81	6
1	6553	1.82	7
1	6576	1.83	7
1	6603	1.84	4
1	6630	1.85	5
1	6667	1.86	7
1	6702	1.87	6
1	6741	1.88	6
1	6778	1.89	4
1	6811	1.9	9
1	6856	1.91	7
1	6887	1.92	8
1	6910	1.93	5
1	6939	1.94	6
1	6970	1.95	6
1	7017	1.96	7
1	7048	1.97	9
1	7089	1.98	5
1	7124	1.99	8
1	7167	2	9
1	7204	2.01	7
1	7245	2.02	2
1	7278	2.03	5
1	7313	2.04	7
1	7344	2.05	9
1	7387	2.06	5
1	7414	2.07	7
1	7455	2.08	7
1	7494	2.09	9
1	7529	2.1	6
1	7576	2.11	5
1	7611	2.12	4
1	7644	2.13	7
1	7681	2.14	4
1	7710	2.15	4
1	7747	2.16	6
1	7776	2.17	7
1	7821	2.18	7
1	7856	2.19	6
1	7899	2.2	10
1	7928	2.21	7
1	7969	2.22	7
1	8008	2.23	9
1	8057	2.24	8
1	8084	2.25	5
1	8123	2.26	7
1	8152	2.27	9
1	8199	2.28	5
1	8240	2.29	7
1	8273	2.3	7
1	8316	2.31	6
1	8347	2.32	9
1	8384	2.33	7
1	8415	2.34	7
1	8456	2.35	5
1	8489	2.36	6
1	8528	2.37	9
1	8561	2.38	8
1	8586	2.39	8
1	8621	2.4	5
1	8664	2.41	7
1	8693	2.42	7
1	8726	2.43	5
1	8755	2.44	5
1	8788	2.45	7
1	8825	2.46	6
1	8856	2.47	5
1	8893	2.48	7
1	8926	2.49	7
1	8947	2.5	5
1	8988	2.51	5
1	9025	2.52	7
1	9058	2.53	8
1	9095	2.54	7
1	9142	2.55	7
1	9169	2.56	6
1	9202	2.57	5
1	9239	2.58	7
1	9278	2.59	9
1	9313	2.6	8
1	9346	2.61	2
1	9395	2.62	8
1	9426	2.63	10
1	9465	2.64	7
1	9490	2.65	7
1	9521	2.66	7
1	9560	2.67	6
1	9587	2.68	6
1	9624	2.69	6
1	9669	2.7	8
1	9720	2.71	5
1	9765	2.72	6
1	9812	2.73	4
1	9853	2.74	4
1	9878	2.75	5
1	9909	2.76	5
1	9946	2.77	9
1	9987	2.78	8
1	10010	2.79	7
1	10051	2.8	3
1	10090	2.81	8
1	10123	2.82	6
1	10156	2.83	8
1	10201	2.84	7
1	10242	2.85	8
1	10285	2.86	8
1	10320	2.87	8
1	10357	2.88	6
1	10388	2.89	6
1	10425	2.9	6
1	10460	2.91	8
1	10495	2.92	8
1	10526	2.93	8
1	10559	2.94	8
1	10592	2.95	5
1	10625	2.96	6
1	10664	2.97	8
1	10713	2.98	8
1	10752	2.99	2
1	10791	3	9
1	10830	3.01	9
1	10865	3.02	7
1	10900	3.03	8
1	10943	3.04	4
1	10974	3.05	8
1	11011	3.06	5
1	11044	3.07	7
1	11095	3.08	7
1	11138	3.09	3
1	11177	3.1	5
1	11210	3.11	6
1	11231	3.12	3
1	11262	3.13	6
1	11309	3.14	5
1	11344	3.15	4
1	11381	3.16	5
1	11422	3.17	5
1	11467	3.18	9
1	11510	3.19	9
1	11539	3.2	7
1	11572	3.21	5
1	11611	3.22	8
1	11636	3.23	8
1	11665	3.24	5
1	11706	3.25	6
1	11737	3.26	8
1	11788	3.27	6
1	11823	3.28	9
1	11848	3.29	3
1	11893	3.3	6
1	11922	3.31	8
1	11963	3.32	5
1	12008	3.33	9
1	12041	3.34	7
1	12072	3.35	5
1	12111	3.36	5
1	12154	3.37	8
1	12193	3.38	4
1	12224	3.39	10
1	12255	3.4	7
1	12284	3.41	6
1	12329	3.42	6
1	12360	3.43	7
1	12401	3.44	5
1	12428	3.45	7
1	12485	3.46	8
1	12522	3.47	3
1	12549	3.48	5
1	12576	3.49	6
1	12611	3.5	8
1	12636	3.51	8
1	12669	3.52	6
1	12718	3.53	7
1	12753	3.54	7
1	12788	3.55	10
1	12837	3.56	7
1	12864	3.57	7
1	12901	3.58	8
1	12930	3.59	6
1	12963	3.6	7
1	12998	3.61	6
1	13039	3.62	7
1	13068	3.63	6
1	13109	3.64	6
1	13156	3.65	7
1	13201	3.66	7
1	13242	3.67	7
1	13281	3.68	8
1	13326	3.69	8
1	13359	3.7	7
1	13394	3.71	5
1	13429	3.72	6
1	13472	3.73	7
1	13509	3.74	9
1	13554	3.75	6
1	13585	3.76	7
1	13624	3.77	5
1	13659	3.78	9
1	13694	3.79	6
1	13747	3.8	7
1	13784	3.81	9
1	13843	3.82	8
1	13876	3.83	10
1	13913	3.84	6
1	13946	3.85	5
1	13967	3.86	4
1	13994	3.87	7
1	14033	3.88	4
1	14064	3.89	3
1	14093	3.9	8
1	14138	3.91	5
1	14167	3.92	8
1	14194	3.93	6
1	14235	3.94	4
1	14274	3.95	8
1	14313	3.96	8
1	14354	3.97	7
1	14393	3.98	7
1	14434	3.99	4
1	14461	4	6
1	14496	4.01	6
1	14523	4.02	3
1	14550	4.03	9
1	14583	4.04	4
1	14618	4.05	5
1	14661	4.06	8
1	14696	4.07	8
1	14729	4.08	8
1	14780	4.09	7
1	14813	4.1	9
1	14840	4.11	7
1	14869	4.12	8
1	14918	4.13	6
1	14953	4.14	5
1	14988	4.15	2
1	15025	4.16	5
1	15056	4.17	3
1	15091	4.18	8
1	15122	4.19	6
1	15159	4.2	6
1	15192	4.21	8
1	15235	4.22	6
1	15280	4.23	7
1	15315	4.24	9
1	15346	4.25	6
1	15389	4.26	6
1	15410	4.27	7
1	15461	4.28	5
1	15500	4.29	8
1	15543	4.3	8
1	15572	4.31	3
1	15621	4.32	6
1	15654	4.33	4
1	15699	4.34	6
1	15724	4.35	6
1	15753	4.36	5
1	15780	4.37	8
1	15813	4.38	3
1	15842	4.39	6
1	15877	4.4	8
1	15904	4.41	5
1	15933	4.42	6
1	15966	4.43	5
1	16005	4.44	7
1	16038	4.45	8
1	16073	4.46	6
1	16116	4.47	7
1	16159	4.48	3
1	16206	4.49	10
1	16239	4.5	5
1	16272	4.51	9
1	16315	4.52	6
1	16340	4.53	5
1	16371	4.54	5
1	16414	4.55	5
1	16447	4.56	8
1	16472	4.57	3
1	16513	4.58	8
1	16538	4.59	5
1	16585	4.6	5
1	16616	4.61	7
1	16653	4.62	4
1	16688	4.63	3
1	16725	4.64	7
1	16750	4.65	4
1	16785	4.66	9
1	16820	4.67	7
1	16853	4.68	6
1	16898	4.69	6
1	16933	4.7	5
1	16962	4.71	7
1	16995	4.72	8
1	17036	4.73	6
1	17087	4.74	8
1	17122	4.75	5
1	17175	4.76	7
1	17208	4.77	8
1	17237	4.78	5
1	17270	4.79	7
1	17307	4.8	2
1	17348	4.81	7
1	17383	4.82	8
1	17418	4.83	5
1	17473	4.84	5
1	17512	4.85	6
1	17533	4.86	6
1	17568	4.87	3
1	17603	4.88	5
1	17642	4.89	8
1	17673	4.9	9
1	17704	4.91	7
1	17741	4.92	5
1	17776	4.93	6
1	17813	4.94	8
1	17844	4.95	7
1	17875	4.96	6
1	17916	4.97	7
1	17943	4.98	8
1	17994	4.99	6
1	18027	5	6
1	18060	5.01	7
1	18089	5.02	7
1	18120	5.03	5
1	18157	5.04	7
1	18202	5.05	5
1	18233	5.06	6
1	18264	5.07	8
1	18297	5.08	8
1	18330	5.09	6
1	18365	5.1	6
1	18412	5.11	6
1	18451	5.12	5
1	18490	5.13	5
1	18517	5.14	10
1	18554	5.15	7
1	18589	5.16	7
1	18630	5.17	7
1	18663	5.18	5
1	18706	5.19	4
1	18745	5.2	9
1	18780	5.21	3
1	18821	5.22	9
1	18844	5.23	9
1	18885	5.24	7
1	18920	5.25	6
1	18947	5.26	10
1	18986	5.27	7
1	19021	5.28	9
1	19044	5.29	5
1	19077	5.3	5
1	19116	5.31	7
1	19155	5.32	8
1	19184	5.33	8
1	19227	5.34	5
1	19262	5.35	5
1	19305	5.36	8
1	19336	5.37	8
1	19369	5.38	5
1	19410	5.39	9
1	19451	5.4	9
1	19486	5.41	8
1	19511	5.42	5
1	19548	5.43	4
1	19581	5.44	4
1	19620	5.45	4
1	19659	5.46	3
1	19698	5.47	9
1	19735	5.48	6
1	19778	5.49	9
1	19805	5.5	9
1	19852	5.51	6
1	19891	5.52	8
1	19914	5.53	8
1	19951	5.54	3
1	20004	5.55	8
1	20045	5.56	8
1	20076	5.57	8
1	20103	5.58	5
1	20134	5.59	7
1	20175	5.6	4
1	20214	5.61	4
1	20251	5.62	4
1	20292	5.63	9
1	20327	5.64	7
1	20350	5.65	6
1	20383	5.66	5
1	20428	5.67	7
1	20455	5.68	8
1	20490	5.69	7
1	20531	5.7	8
1	20578	5.71	6
1	20609	5.72	8
1	20658	5.73	5
1	20683	5.74	7
1	20724	5.75	3
1	20751	5.76	5
1	20770	5.77	5
1	20809	5.78	3
1	20864	5.79	3
1	20903	5.8	5
1	20954	5.81	6
1	20991	5.82	5
1	21022	5.83	10
1	21059	5.84	3
1	21090	5.85	4
1	21137	5.86	6
1	21166	5.87	3
1	21199	5.88	7
1	21232	5.89	4
1	21261	5.9	6
1	21294	5.91	7
1	21341	5.92	7
1	21374	5.93	5
1	21409	5.94	7
1	21436	5.95	7
1	21479	5.96	4
1	21524	5.97	8
1	21557	5.98	8
1	21596	5.99	5
1	21635	6	6
1	21666	6.01	6
1	21691	6.02	8
1	21752	6.03	5
1	21785	6.04	7
1	21810	6.05	2
1	21839	6.06	4
1	21880	6.07	8
1	21925	6.08	7
1	21962	6.09	4
1	21997	6.1	9
1	22028	6.11	4
1	22071	6.12	6
1	22108	6.13	9
1	22137	6.14	7
1	22166	6.15	5
1	22209	6.16	6
1	22234	6.17	7
1	22271	6.18	6
1	22304	6.19	7
1	22349	6.2	5
1	22386	6.21	5
1	22429	6.22	9
1	22468	6.23	9
1	22499	6.24	4
1	22524	6.25	7
1	22555	6.26	4
1	22590	6.27	6
1	22633	6.28	2
1	22672	6.29	5
1	22719	6.3	7
1	22754	6.31	6
1	22797	6.32	4
1	22830	6.33	4
1	22859	6.34	6
1	22898	6.35	6
1	22943	6.36	3
1	22974	6.37	3
1	23005	6.38	6
1	23038	6.39	8
1	23083	6.4	6
1	23118	6.41	8
1	23155	6.42	6
1	23192	6.43	8
1	23239	6.44	7
1	23280	6.45	8
1	23313	6.46	3
1	23354	6.47	7
1	23385	6.48	6
1	23430	6.49	7
1	23459	6.5	7
1	23508	6.51	8
1	23543	6.52	7
1	23588	6.53	5
1	23621	6.54	10
1	23658	6.55	7
1	23685	6.56	8
1	23718	6.57	6
1	23741	6.58	6
1	23794	6.59	4
1	23833	6.6	7
1	23856	6.61	6
1	23895	6.62	5
1	23940	6.63	8
1	23973	6.64	9
1	24006	6.65	7
1	24047	6.66	4
1	24086	6.67	5
1	24125	6.68	8
1	24156	6.69	8
1	24201	6.7	6
1	24240	6.71	5
1	24285	6.72	9
1	24314	6.73	10
1	24355	6.74	6
1	24394	6.75	6
1	24431	6.76	8
1	24468	6.77	3
1	24495	6.78	5
1	24528	6.79	5
1	24567	6.8	4
1	24600	6.81	7
1	24631	6.82	8
1	24670	6.83	9
1	24699	6.84	8
1	24734	6.85	6
1	24767	6.86	7
1	24814	6.87	5
1	24849	6.88	4
1	24884	6.89	8
1	24919	6.9	7
1	24948	6.91	7
1	25001	6.92	8
1	25052	6.93	7
1	25093	6.94	5
1	25134	6.95	7
1	25175	6.96	4
1	25218	6.97	6
1	25249	6.98	6
1	25282	6.99	7
1	25309	7	7
1	25346	7.01	4
1	25391	7.02	6
1	25434	7.03	8
1	25471	7.04	6
1	25504	7.05	10
1	25537	7.06	5
1	25580	7.07	5
1	25605	7.08	8
1	25648	7.09	6
1	25691	7.1	7
1	25722	7.11	7
1	25753	7.12	7
1	25794	7.13	6
1	25825	7.14	9
1	25858	7.15	6
1	25895	7.16	7
1	25940	7.17	4
1	25975	7.18	3
1	26020	7.19	5
1	26053	7.2	9
1	26078	7.21	6
1	26127	7.22	6
1	26154	7.23	7
1	26191	7.24	4
1	26224	7.25	7
1	26269	7.26	6
1	26318	7.27	9
1	26357	7.28	4
1	26406	7.29	5
1	26449	7.3	5
1	26486	7.31	3
1	26517	7.32	7
1	26554	7.33	5
1	26589	7.34	4
1	26624	7.35	7
1	26667	7.36	6
1	26706	7.37	6
1	26737	7.38	5
1	26780	7.39	8
1	26811	7.4	7
1	26852	7.41	7
1	26879	7.42	6
1	26918	7.43	7
1	26941	7.44	7
1	26966	7.45	6
1	27001	7.46	4
1	27024	7.47	5
1	27073	7.48	3
1	27102	7.49	5
1	27125	7.5	7
1	27156	7.51	5
1	27189	7.52	7
1	27228	7.53	8
1	27265	7.54	8
1	27314	7.55	6
1	27347	7.56	9
1	27378	7.57	6
1	27423	7.58	4
1	27456	7.59	10
1	27493	7.6	5
1	27532	7.61	4
1	27569	7.62	9
1	27618	7.63	5
1	27653	7.64	4
1	27692	7.65	9
1	27725	7.66	6
1	27764	7.67	8
1	27789	7.68	8
1	27826	7.69	5
1	27861	7.7	7
1	27894	7.71	6
1	27923	7.72	8
1	27958	7.73	6
1	27995	7.74	7
1	28026	7.75	6
1	28055	7.76	8
1	28098	7.77	4
1	28123	7.78	8
1	28164	7.79	6
1	28199	7.8	5
1	28232	7.81	9
1	28265	7.82	9
1	28306	7.83	7
1	28339	7.84	6
1	28362	7.85	9
1	28393	7.86	4
1	28428	7.87	7
1	28459	7.88	7
1	28496	7.89	6
1	28535	7.9	8
1	28568	7.91	7
1	28609	7.92	6
1	28652	7.93	5
1	28689	7.94	5
1	28716	7.95	2
1	28745	7.96	5
1	28768	7.97	5
1	28793	7.98	4
1	28830	7.99	6
1	28853	8	8
1	28912	8.01	5
1	28941	8.02	5
1	28964	8.03	5
1	28999	8.04	7
1	29028	8.05	6
1	29075	8.06	7
1	29114	8.07	7
1	29147	8.08	8
1	29184	8.09	7
1	29227	8.1	7
1	29264	8.11	9
1	29305	8.12	8
1	29332	8.13	7
1	29367	8.14	6
1	29416	8.15	6
1	29449	8.16	8
1	29484	8.17	6
1	29509	8.18	7
1	29546	8.19	6
1	29581	8.2	6
1	29602	8.21	7
1	29643	8.22	4
1	29670	8.23	4
1	29717	8.24	10
1	29754	8.25	6
1	29797	8.26	8
1	29838	8.27	7
1	29887	8.28	7
1	29928	8.29	5
1	29969	8.3	8
1	30010	8.31	5
1	30043	8.32	9
1	30074	8.33	4
1	30111	8.34	7
1	30146	8.35	7
1	30201	8.36	7
1	30246	8.37	10
1	30291	8.38	7
1	30332	8.39	6
1	30365	8.4	8
1	30396	8.41	7
1	30433	8.42	8
1	30458	8.43	8
1	30491	8.44	7
1	30528	8.45	8
1	30567	8.46	5
1	30608	8.47	7
1	30637	8.48	6
1	30658	8.49	4
1	30695	8.5	5
1	30746	8.51	7
1	30781	8.52	5
1	30826	8.53	7
1	30853	8.54	5
1	30888	8.55	3
1	30937	8.56	5
1	30968	8.57	5
1	31005	8.58	8
1	31042	8.59	6
1	31063	8.6	7
1	31098	8.61	5
1	31149	8.62	7
1	31184	8.63	8
1	31223	8.64	6
1	31258	8.65	7
1	31303	8.66	8
1	31336	8.67	7
1	31379	8.68	8
1	31412	8.69	5
1	31463	8.7	7
1	31500	8.71	8
1	31531	8.72	5
1	31562	8.73	4
1	31607	8.74	7
1	31646	8.75	8
1	31673	8.76	7
1	31716	8.77	5
1	31763	8.78	6
1	31792	8.79	9
1	31833	8.8	7
1	31870	8.81	6
1	31907	8.82	8
1	31944	8.83	8
1	31977	8.84	7
1	32026	8.85	6
1	32067	8.86	7
1	32112	8.87	8
1	32153	8.88	7
1	32186	8.89	7
1	32217	8.9	5
1	32248	8.91	6
1	32275	8.92	7
1	32314	8.93	7
1	32345	8.94	6
1	32392	8.95	6
1	32433	8.96	4
1	32476	8.97	6
1	32501	8.98	10
1	32538	8.99	4
1	32569	9	7
1	32616	9.01	5
1	32657	9.02	7
1	32690	9.03	8
1	32733	9.04	5
1	32782	9.05	6
1	32817	9.06	3
1	32850	9.07	5
1	32885	9.08	4
1	32926	9.09	5
1	32967	9.1	8
1	32996	9.11	4
1	33033	9.12	6
1	33052	9.13	5
1	33081	9.14	7
1	33126	9.15	8
1	33153	9.16	7
1	33190	9.17	4
1	33229	9.18	4
1	33266	9.19	3
1	33309	9.2	9
1	33348	9.21	6
1	33373	9.22	5
1	33398	9.23	5
1	33427	9.24	7
1	33460	9.25	7
1	33495	9.26	8
1	33532	9.27	7
1	33567	9.28	8
1	33598	9.29	7
1	33639	9.3	7
1	33670	9.31	7
1	33707	9.32	7
1	33738	9.33	6
1	33767	9.34	7
1	33814	9.35	6
1	33847	9.36	8
1	33878	9.37	6
1	33909	9.38	6
1	33942	9.39	6
1	33977	9.4	5
1	34010	9.41	6
1	34049	9.42	7
1	34086	9.43	7
1	34131	9.44	8
1	34162	9.45	7
1	34183	9.46	6
1	34210	9.47	3
1	34253	9.48	6
1	34284	9.49	7
1	34321	9.5	5
1	34350	9.51	7
1	34377	9.52	5
1	34424	9.53	5
1	34457	9.54	8
1	34488	9.55	7
1	34521	9.56	7
1	34550	9.57	8
1	34585	9.58	7
1	34616	9.59	5
1	34653	9.6	7
1	34700	9.61	8
1	34733	9.62	7
1	34778	9.63	8
1	34821	9.64	4
1	34870	9.65	7
1	34893	9.66	8
1	34930	9.67	7
1	34959	9.68	8
1	34992	9.69	5
1	35021	9.7	3
1	35066	9.71	3
1	35099	9.72	9
1	35128	9.73	7
1	35165	9.74	4
1	35202	9.75	8
1	35245	9.76	8
1	35274	9.77	7
1	35305	9.78	7
1	35350	9.79	6
1	35395	9.8	5
1	35428	9.81	6
1	35455	9.82	6
1	35482	9.83	7
1	35507	9.84	4
1	35556	9.85	8
1	35597	9.86	5
1	35628	9.87	7
1	35665	9.88	2
1	35708	9.89	6
1	35741	9.9	8
1	35774	9.91	10
1	35811	9.92	7
1	35846	9.93	6
1	35875	9.94	7
1	35908	9.95	7
1	35955	9.96	7
1	35996	9.97	8
1	36043	9.98	6
1	36078	9.99	6
1	36117	10	6
2	52	0.01	0
2	87	0.02	88
2	118	0.03	0
2	157	0.04	33
2	198	0.05	0
2	227	0.06	0
2	270	0.07	225
2	303	0.08	131
2	348	0.09	0
2	385	0.1	0
2	424	0.11	60
2	463	0.12	0
2	500	0.13	23
2	539	0.14	0
2	576	0.15	54
2	607	0.16	0
2	652	0.17	0
2	695	0.18	59
2	732	0.19	0
2	767	0.2	72
2	806	0.21	91
2	837	0.22	51
2	886	0.23	49
2	909	0.24	0
2	944	0.25	44
2	987	0.26	83
2	1016	0.27	6
2	1055	0.28	8
2	1088	0.29	0
2	1129	0.3	67
2	1170	0.31	19
2	1193	0.32	83
2	1226	0.33	0
2	1261	0.34	0
2	1302	0.35	114
2	1339	0.36	0
2	1386	0.37	131
2	1413	0.38	161
2	1454	0.39	151
2	1485	0.4	26
2	1524	0.41	0
2	1565	0.42	3
2	1600	0.43	14
2	1643	0.44	58
2	1680	0.45	120
2	1705	0.46	0
2	1738	0.47	59
2	1773	0.48	11
2	1816	0.49	0
2	1849	0.5	215
2	1876	0.51	0
2	1903	0.52	0
2	1946	0.53	0
2	1985	0.54	128
2	2022	0.55	118
2	2053	0.56	57
2	2088	0.57	0
2	2127	0.58	55
2	2160	0.59	0
2	2199	0.6	0
2	2236	0.61	78
2	2277	0.62	17
2	2306	0.63	32
2	2333	0.64	5
2	2374	0.65	86
2	2409	0.66	7
2	2444	0.67	0
2	2471	0.68	37
2	2496	0.69	0
2	2533	0.7	15
2	2570	0.71	0
2	2603	0.72	192
2	2640	0.73	0
2	2681	0.74	77
2	2720	0.75	60
2	2761	0.76	25
2	2798	0.77	111
2	2829	0.78	132
2	2862	0.79	0
2	2885	0.8	27
2	2916	0.81	0
2	2961	0.82	77
2	3006	0.83	20
2	3059	0.84	0
2	3100	0.85	35
2	3131	0.86	0
2	3156	0.87	0
2	3197	0.88	126
2	3238	0.89	24
2	3271	0.9	10
2	3314	0.91	0
2	3335	0.92	0
2	3362	0.93	0
2	3405	0.94	38
2	3434	0.95	0
2	3465	0.96	89
2	3498	0.97	37
2	3531	0.98	52
2	3572	0.99	0
2	3603	1	205
2	3636	1.01	0
2	3677	1.02	36
2	3714	1.03	77
2	3751	1.04	9
2	3782	1.05	29
2	3815	1.06	0
2	3846	1.07	3
2	3879	1.08	54
2	3918	1.09	0
2	3961	1.1	0
2	3998	1.11	0
2	4051	1.12	0
2	4086	1.13	67
2	4123	1.14	0
2	4162	1.15	75
2	4203	1.16	270
2	4240	1.17	215
2	4271	1.18	52
2	4300	1.19	0
2	4337	1.2	76
2	4374	1.21	41
2	4409	1.22	24
2	4452	1.23	129
2	4481	1.24	0
2	4524	1.25	65
2	4561	1.26	0
2	4616	1.27	0
2	4651	1.28	0
2	4692	1.29	76
2	4725	1.3	0
2	4754	1.31	0
2	4797	1.32	286
2	4826	1.33	0
2	4863	1.34	45
2	4894	1.35	0
2	4931	1.36	84
2	4964	1.37	64
2	4987	1.38	0
2	5040	1.39	59
2	5091	1.4	178
2	5126	1.41	121
2	5171	1.42	0
2	5204	1.43	0
2	5227	1.44	129
2	5258	1.45	0
2	5295	1.46	58
2	5334	1.47	74
2	5371	1.48	22
2	5404	1.49	121
2	5441	1.5	75
2	5478	1.51	2
2	5513	1.52	0
2	5550	1.53	56
2	5587	1.54	0
2	5614	1.55	47
2	5653	1.56	217
2	5692	1.57	0
2	5725	1.58	41
2	5762	1.59	0
2	5789	1.6	154
2	5828	1.61	0
2	5859	1.62	0
2	5888	1.63	0
2	5911	1.64	54
2	5950	1.65	68
2	5981	1.66	0
2	6020	1.67	61
2	6055	1.68	0
2	6096	1.69	68
2	6123	1.7	75
2	6160	1.71	122
2	6191	1.72	47
2	6224	1.73	92
2	6257	1.74	0
2	6294	1.75	73
2	6329	1.76	52
2	6374	1.77	33
2	6405	1.78	18
2	6440	1.79	0
2	6479	1.8	0
2	6518	1.81	0
2	6553	1.82	175
2	6576	1.83	0
2	6603	1.84	0
2	6630	1.85	60
2	6667	1.86	0
2	6702	1.87	76
2	6741	1.88	0
2	6778	1.89	0
2	6811	1.9	25
2	6856	1.91	0
2	6887	1.92	98
2	6910	1.93	0
2	6939	1.94	52
2	6970	1.95	0
2	7017	1.96	0
2	7048	1.97	66
2	7089	1.98	0
2	7124	1.99	81
2	7167	2	60
2	7204	2.01	45
2	7245	2.02	51
2	7278	2.03	15
2	7313	2.04	0
2	7344	2.05	122
2	7387	2.06	0
2	7414	2.07	0
2	7455	2.08	198
2	7494	2.09	45
2	7529	2.1	0
2	7576	2.11	0
2	7611	2.12	53
2	7644	2.13	0
2	7681	2.14	207
2	7710	2.15	0
2	7747	2.16	53
2	7776	2.17	56
2	7821	2.18	0
2	7856	2.19	6
2	7899	2.2	69
2	7928	2.21	68
2	7969	2.22	71
2	8008	2.23	29
2	8057	2.24	24
2	8084	2.25	72
2	8123	2.26	108
2	8152	2.27	17
2	8199	2.28	99
2	8240	2.29	11
2	8273	2.3	0
2	8316	2.31	123
2	8347	2.32	121
2	8384	2.33	23
2	8415	2.34	8
2	8456	2.35	0
2	8489	2.36	93
2	8528	2.37	117
2	8561	2.38	50
2	8586	2.39	1
2	8621	2.4	62
2	8664	2.41	140
2	8693	2.42	0
2	8726	2.43	0
2	8755	2.44	0
2	8788	2.45	70
2	8825	2.46	57
2	8856	2.47	0
2	8893	2.48	68
2	8926	2.49	0
2	8947	2.5	0
2	8988	2.51	0
2	9025	2.52	57
2	9058	2.53	119
2	9095	2.54	123
2	9142	2.55	63
2	9169	2.56	102
2	9202	2.57	20
2	9239	2.58	7
2	9278	2.59	11
2	9313	2.6	12
2	9346	2.61	0
2	9395	2.62	99
2	9426	2.63	17
2	9465	2.64	7
2	9490	2.65	120
2	9521	2.66	122
2	9560	2.67	0
2	9587	2.68	203
2	9624	2.69	18
2	9669	2.7	0
2	9720	2.71	64
2	9765	2.72	0
2	9812	2.73	0
2	9853	2.74	217
2	9878	2.75	0
2	9909	2.76	0
2	9946	2.77	172
2	9987	2.78	1
2	10010	2.79	86
2	10051	2.8	0
2	10090	2.81	53
2	10123	2.82	108
2	10156	2.83	0
2	10201	2.84	80
2	10242	2.85	114
2	10285	2.86	41
2	10320	2.87	117
2	10357	2.88	61
2	10388	2.89	0
2	10425	2.9	52
2	10460	2.91	63
2	10495	2.92	40
2	10526	2.93	49
2	10559	2.94	5
2	10592	2.95	0
2	10625	2.96	83
2	10664	2.97	22
2	10713	2.98	135
2	10752	2.99	0
2	10791	3	87
2	10830	3.01	103
2	10865	3.02	65
2	10900	3.03	49
2	10943	3.04	51
2	10974	3.05	128
2	11011	3.06	92
2	11044	3.07	8
2	11095	3.08	7
2	11138	3.09	123
2	11177	3.1	0
2	11210	3.11	98
2	11231	3.12	103
2	11262	3.13	46
2	11309	3.14	0
2	11344	3.15	0
2	11381	3.16	141
2	11422	3.17	0
2	11467	3.18	94
2	11510	3.19	55
2	11539	3.2	0
2	11572	3.21	9
2	11611	3.22	8
2	11636	3.23	43
2	11665	3.24	0
2	11706	3.25	0
2	11737	3.26	92
2	11788	3.27	41
2	11823	3.28	37
2	11848	3.29	0
2	11893	3.3	38
2	11922	3.31	88
2	11963	3.32	0
2	12008	3.33	27
2	12041	3.34	17
2	12072	3.35	120
2	12111	3.36	0
2	12154	3.37	93
2	12193	3.38	0
2	12224	3.39	70
2	12255	3.4	12
2	12284	3.41	68
2	12329	3.42	36
2	12360	3.43	113
2	12401	3.44	0
2	12428	3.45	70
2	12485	3.46	114
2	12522	3.47	0
2	12549	3.48	127
2	12576	3.49	40
2	12611	3.5	40
2	12636	3.51	22
2	12669	3.52	52
2	12718	3.53	80
2	12753	3.54	41
2	12788	3.55	33
2	12837	3.56	123
2	12864	3.57	0
2	12901	3.58	90
2	12930	3.59	0
2	12963	3.6	115
2	12998	3.61	0
2	13039	3.62	163
2	13068	3.63	41
2	13109	3.64	34
2	13156	3.65	119
2	13201	3.66	0
2	13242	3.67	44
2	13281	3.68	0
2	13326	3.69	209
2	13359	3.7	187
2	13394	3.71	68
2	13429	3.72	25
2	13472	3.73	108
2	13509	3.74	49
2	13554	3.75	88
2	13585	3.76	1
2	13624	3.77	55
2	13659	3.78	23
2	13694	3.79	51
2	13747	3.8	5
2	13784	3.81	12
2	13843	3.82	5
2	13876	3.83	74
2	13913	3.84	51
2	13946	3.85	61
2	13967	3.86	0
2	13994	3.87	31
2	14033	3.88	0
2	14064	3.89	0
2	14093	3.9	94
2	14138	3.91	205
2	14167	3.92	62
2	14194	3.93	103
2	14235	3.94	0
2	14274	3.95	58
2	14313	3.96	0
2	14354	3.97	0
2	14393	3.98	71
2	14434	3.99	0
2	14461	4	81
2	14496	4.01	0
2	14523	4.02	133
2	14550	4.03	0
2	14583	4.04	24
2	14618	4.05	0
2	14661	4.06	8
2	14696	4.07	38
2	14729	4.08	0
2	14780	4.09	29
2	14813	4.1	53
2	14840	4.11	2
2	14869	4.12	52
2	14918	4.13	35
2	14953	4.14	44
2	14988	4.15	0
2	15025	4.16	0
2	15056	4.17	102
2	15091	4.18	19
2	15122	4.19	72
2	15159	4.2	7
2	15192	4.21	64
2	15235	4.22	0
2	15280	4.23	80
2	15315	4.24	99
2	15346	4.25	0
2	15389	4.26	0
2	15410	4.27	137
2	15461	4.28	0
2	15500	4.29	73
2	15543	4.3	69
2	15572	4.31	0
2	15621	4.32	0
2	15654	4.33	93
2	15699	4.34	36
2	15724	4.35	0
2	15753	4.36	0
2	15780	4.37	232
2	15813	4.38	0
2	15842	4.39	0
2	15877	4.4	126
2	15904	4.41	125
2	15933	4.42	0
2	15966	4.43	48
2	16005	4.44	0
2	16038	4.45	44
2	16073	4.46	0
2	16116	4.47	78
2	16159	4.48	0
2	16206	4.49	176
2	16239	4.5	0
2	16272	4.51	67
2	16315	4.52	0
2	16340	4.53	0
2	16371	4.54	49
2	16414	4.55	22
2	16447	4.56	60
2	16472	4.57	0
2	16513	4.58	0
2	16538	4.59	0
2	16585	4.6	60
2	16616	4.61	55
2	16653	4.62	0
2	16688	4.63	0
2	16725	4.64	40
2	16750	4.65	0
2	16785	4.66	165
2	16820	4.67	94
2	16853	4.68	41
2	16898	4.69	53
2	16933	4.7	118
2	16962	4.71	143
2	16995	4.72	16
2	17036	4.73	55
2	17087	4.74	125
2	17122	4.75	0
2	17175	4.76	20
2	17208	4.77	0
2	17237	4.78	142
2	17270	4.79	18
2	17307	4.8	28
2	17348	4.81	0
2	17383	4.82	185
2	17418	4.83	0
2	17473	4.84	0
2	17512	4.85	118
2	17533	4.86	0
2	17568	4.87	0
2	17603	4.88	0
2	17642	4.89	0
2	17673	4.9	150
2	17704	4.91	24
2	17741	4.92	0
2	17776	4.93	61
2	17813	4.94	60
2	17844	4.95	88
2	17875	4.96	29
2	17916	4.97	56
2	17943	4.98	0
2	17994	4.99	0
2	18027	5	36
2	18060	5.01	94
2	18089	5.02	0
2	18120	5.03	0
2	18157	5.04	0
2	18202	5.05	0
2	18233	5.06	0
2	18264	5.07	124
2	18297	5.08	24
2	18330	5.09	0
2	18365	5.1	32
2	18412	5.11	52
2	18451	5.12	0
2	18490	5.13	138
2	18517	5.14	53
2	18554	5.15	6
2	18589	5.16	21
2	18630	5.17	53
2	18663	5.18	0
2	18706	5.19	0
2	18745	5.2	156
2	18780	5.21	71
2	18821	5.22	54
2	18844	5.23	0
2	18885	5.24	129
2	18920	5.25	51
2	18947	5.26	12
2	18986	5.27	17
2	19021	5.28	46
2	19044	5.29	150
2	19077	5.3	0
2	19116	5.31	0
2	19155	5.32	19
2	19184	5.33	10
2	19227	5.34	14
2	19262	5.35	0
2	19305	5.36	63
2	19336	5.37	162
2	19369	5.38	21
2	19410	5.39	41
2	19451	5.4	58
2	19486	5.41	96
2	19511	5.42	0
2	19548	5.43	72
2	19581	5.44	0
2	19620	5.45	15
2	19659	5.46	72
2	19698	5.47	76
2	19735	5.48	45
2	19778	5.49	4
2	19805	5.5	116
2	19852	5.51	97
2	19891	5.52	14
2	19914	5.53	30
2	19951	5.54	26
2	20004	5.55	26
2	20045	5.56	66
2	20076	5.57	79
2	20103	5.58	24
2	20134	5.59	32
2	20175	5.6	63
2	20214	5.61	0
2	20251	5.62	100
2	20292	5.63	13
2	20327	5.64	33
2	20350	5.65	54
2	20383	5.66	0
2	20428	5.67	0
2	20455	5.68	134
2	20490	5.69	28
2	20531	5.7	0
2	20578	5.71	102
2	20609	5.72	56
2	20658	5.73	0
2	20683	5.74	0
2	20724	5.75	0
2	20751	5.76	0
2	20770	5.77	104
2	20809	5.78	0
2	20864	5.79	61
2	20903	5.8	98
2	20954	5.81	0
2	20991	5.82	47
2	21022	5.83	49
2	21059	5.84	0
2	21090	5.85	0
2	21137	5.86	0
2	21166	5.87	423
2	21199	5.88	119
2	21232	5.89	0
2	21261	5.9	106
2	21294	5.91	70
2	21341	5.92	46
2	21374	5.93	65
2	21409	5.94	0
2	21436	5.95	0
2	21479	5.96	0
2	21524	5.97	204
2	21557	5.98	72
2	21596	5.99	0
2	21635	6	13
2	21666	6.01	26
2	21691	6.02	0
2	21752	6.03	37
2	21785	6.04	0
2	21810	6.05	0
2	21839	6.06	190
2	21880	6.07	84
2	21925	6.08	0
2	21962	6.09	0
2	21997	6.1	86
2	22028	6.11	0
2	22071	6.12	156
2	22108	6.13	117
2	22137	6.14	18
2	22166	6.15	4
2	22209	6.16	0
2	22234	6.17	151
2	22271	6.18	74
2	22304	6.19	0
2	22349	6.2	0
2	22386	6.21	57
2	22429	6.22	185
2	22468	6.23	34
2	22499	6.24	0
2	22524	6.25	72
2	22555	6.26	60
2	22590	6.27	0
2	22633	6.28	0
2	22672	6.29	177
2	22719	6.3	0
2	22754	6.31	11
2	22797	6.32	0
2	22830	6.33	0
2	22859	6.34	0
2	22898	6.35	0
2	22943	6.36	329
2	22974	6.37	0
2	23005	6.38	380
2	23038	6.39	68
2	23083	6.4	0
2	23118	6.41	67
2	23155	6.42	99
2	23192	6.43	0
2	23239	6.44	112
2	23280	6.45	0
2	23313	6.46	0
2	23354	6.47	128
2	23385	6.48	0
2	23430	6.49	101
2	23459	6.5	28
2	23508	6.51	101
2	23543	6.52	0
2	23588	6.53	112
2	23621	6.54	55
2	23658	6.55	74
2	23685	6.56	63
2	23718	6.57	0
2	23741	6.58	0
2	23794	6.59	109
2	23833	6.6	140
2	23856	6.61	0
2	23895	6.62	0
2	23940	6.63	11
2	23973	6.64	168
2	24006	6.65	34
2	24047	6.66	0
2	24086	6.67	47
2	24125	6.68	0
2	24156	6.69	77
2	24201	6.7	49
2	24240	6.71	61
2	24285	6.72	57
2	24314	6.73	9
2	24355	6.74	0
2	24394	6.75	46
2	24431	6.76	73
2	24468	6.77	0
2	24495	6.78	0
2	24528	6.79	79
2	24567	6.8	60
2	24600	6.81	92
2	24631	6.82	0
2	24670	6.83	73
2	24699	6.84	34
2	24734	6.85	120
2	24767	6.86	30
2	24814	6.87	0
2	24849	6.88	62
2	24884	6.89	9
2	24919	6.9	0
2	24948	6.91	156
2	25001	6.92	71
2	25052	6.93	123
2	25093	6.94	0
2	25134	6.95	81
2	25175	6.96	124
2	25218	6.97	176
2	25249	6.98	0
2	25282	6.99	63
2	25309	7	19
2	25346	7.01	0
2	25391	7.02	0
2	25434	7.03	27
2	25471	7.04	0
2	25504	7.05	197
2	25537	7.06	6
2	25580	7.07	45
2	25605	7.08	20
2	25648	7.09	0
2	25691	7.1	24
2	25722	7.11	83
2	25753	7.12	0
2	25794	7.13	0
2	25825	7.14	0
2	25858	7.15	24
2	25895	7.16	0
2	25940	7.17	0
2	25975	7.18	28
2	26020	7.19	0
2	26053	7.2	93
2	26078	7.21	0
2	26127	7.22	31
2	26154	7.23	0
2	26191	7.24	96
2	26224	7.25	129
2	26269	7.26	0
2	26318	7.27	31
2	26357	7.28	0
2	26406	7.29	15
2	26449	7.3	0
2	26486	7.31	0
2	26517	7.32	217
2	26554	7.33	0
2	26589	7.34	0
2	26624	7.35	110
2	26667	7.36	0
2	26706	7.37	63
2	26737	7.38	40
2	26780	7.39	18
2	26811	7.4	138
2	26852	7.41	43
2	26879	7.42	0
2	26918	7.43	62
2	26941	7.44	68
2	26966	7.45	20
2	27001	7.46	0
2	27024	7.47	0
2	27073	7.48	0
2	27102	7.49	0
2	27125	7.5	66
2	27156	7.51	26
2	27189	7.52	110
2	27228	7.53	0
2	27265	7.54	26
2	27314	7.55	0
2	27347	7.56	158
2	27378	7.57	101
2	27423	7.58	0
2	27456	7.59	38
2	27493	7.6	0
2	27532	7.61	0
2	27569	7.62	0
2	27618	7.63	0
2	27653	7.64	277
2	27692	7.65	37
2	27725	7.66	0
2	27764	7.67	102
2	27789	7.68	93
2	27826	7.69	0
2	27861	7.7	39
2	27894	7.71	84
2	27923	7.72	74
2	27958	7.73	0
2	27995	7.74	0
2	28026	7.75	0
2	28055	7.76	0
2	28098	7.77	0
2	28123	7.78	0
2	28164	7.79	74
2	28199	7.8	0
2	28232	7.81	190
2	28265	7.82	120
2	28306	7.83	0
2	28339	7.84	0
2	28362	7.85	67
2	28393	7.86	54
2	28428	7.87	0
2	28459	7.88	44
2	28496	7.89	6
2	28535	7.9	73
2	28568	7.91	0
2	28609	7.92	0
2	28652	7.93	34
2	28689	7.94	0
2	28716	7.95	0
2	28745	7.96	65
2	28768	7.97	149
2	28793	7.98	0
2	28830	7.99	201
2	28853	8	73
2	28912	8.01	0
2	28941	8.02	147
2	28964	8.03	0
2	28999	8.04	44
2	29028	8.05	0
2	29075	8.06	0
2	29114	8.07	0
2	29147	8.08	0
2	29184	8.09	48
2	29227	8.1	41
2	29264	8.11	93
2	29305	8.12	30
2	29332	8.13	25
2	29367	8.14	101
2	29416	8.15	39
2	29449	8.16	72
2	29484	8.17	0
2	29509	8.18	43
2	29546	8.19	0
2	29581	8.2	0
2	29602	8.21	206
2	29643	8.22	0
2	29670	8.23	0
2	29717	8.24	43
2	29754	8.25	150
2	29797	8.26	0
2	29838	8.27	0
2	29887	8.28	0
2	29928	8.29	0
2	29969	8.3	51
2	30010	8.31	0
2	30043	8.32	34
2	30074	8.33	0
2	30111	8.34	197
2	30146	8.35	92
2	30201	8.36	42
2	30246	8.37	108
2	30291	8.38	49
2	30332	8.39	85
2	30365	8.4	0
2	30396	8.41	28
2	30433	8.42	7
2	30458	8.43	51
2	30491	8.44	30
2	30528	8.45	0
2	30567	8.46	191
2	30608	8.47	82
2	30637	8.48	5
2	30658	8.49	0
2	30695	8.5	0
2	30746	8.51	67
2	30781	8.52	0
2	30826	8.53	56
2	30853	8.54	0
2	30888	8.55	0
2	30937	8.56	75
2	30968	8.57	0
2	31005	8.58	25
2	31042	8.59	0
2	31063	8.6	72
2	31098	8.61	0
2	31149	8.62	23
2	31184	8.63	77
2	31223	8.64	61
2	31258	8.65	154
2	31303	8.66	119
2	31336	8.67	5
2	31379	8.68	0
2	31412	8.69	82
2	31463	8.7	7
2	31500	8.71	181
2	31531	8.72	37
2	31562	8.73	109
2	31607	8.74	89
2	31646	8.75	74
2	31673	8.76	29
2	31716	8.77	0
2	31763	8.78	42
2	31792	8.79	40
2	31833	8.8	43
2	31870	8.81	66
2	31907	8.82	0
2	31944	8.83	54
2	31977	8.84	103
2	32026	8.85	0
2	32067	8.86	83
2	32112	8.87	6
2	32153	8.88	132
2	32186	8.89	0
2	32217	8.9	45
2	32248	8.91	33
2	32275	8.92	0
2	32314	8.93	87
2	32345	8.94	143
2	32392	8.95	0
2	32433	8.96	125
2	32476	8.97	0
2	32501	8.98	117
2	32538	8.99	0
2	32569	9	60
2	32616	9.01	0
2	32657	9.02	144
2	32690	9.03	16
2	32733	9.04	99
2	32782	9.05	90
2	32817	9.06	0
2	32850	9.07	0
2	32885	9.08	256
2	32926	9.09	51
2	32967	9.1	41
2	32996	9.11	0
2	33033	9.12	0
2	33052	9.13	0
2	33081	9.14	270
2	33126	9.15	71
2	33153	9.16	38
2	33190	9.17	0
2	33229	9.18	100
2	33266	9.19	0
2	33309	9.2	264
2	33348	9.21	122
2	33373	9.22	62
2	33398	9.23	0
2	33427	9.24	0
2	33460	9.25	0
2	33495	9.26	51
2	33532	9.27	65
2	33567	9.28	70
2	33598	9.29	120
2	33639	9.3	80
2	33670	9.31	0
2	33707	9.32	24
2	33738	9.33	0
2	33767	9.34	76
2	33814	9.35	55
2	33847	9.36	0
2	33878	9.37	2
2	33909	9.38	38
2	33942	9.39	0
2	33977	9.4	96
2	34010	9.41	0
2	34049	9.42	19
2	34086	9.43	21
2	34131	9.44	86
2	34162	9.45	40
2	34183	9.46	60
2	34210	9.47	0
2	34253	9.48	0
2	34284	9.49	147
2	34321	9.5	0
2	34350	9.51	103
2	34377	9.52	0
2	34424	9.53	0
2	34457	9.54	47
2	34488	9.55	31
2	34521	9.56	25
2	34550	9.57	75
2	34585	9.58	46
2	34616	9.59	145
2	34653	9.6	58
2	34700	9.61	24
2	34733	9.62	2
2	34778	9.63	39
2	34821	9.64	0
2	34870	9.65	78
2	34893	9.66	134
2	34930	9.67	77
2	34959	9.68	0
2	34992	9.69	21
2	35021	9.7	0
2	35066	9.71	0
2	35099	9.72	134
2	35128	9.73	2
2	35165	9.74	0
2	35202	9.75	108
2	35245	9.76	100
2	35274	9.77	25
2	35305	9.78	28
2	35350	9.79	69
2	35395	9.8	0
2	35428	9.81	0
2	35455	9.82	145
2	35482	9.83	2
2	35507	9.84	0
2	35556	9.85	68
2	35597	9.86	0
2	35628	9.87	42
2	35665	9.88	70
2	35708	9.89	0
2	35741	9.9	208
2	35774	9.91	62
2	35811	9.92	15
2	35846	9.93	187
2	35875	9.94	0
2	35908	9.95	40
2	35955	9.96	0
2	35996	9.97	66
2	36043	9.98	0
2	36078	9.99	148
2	36117	10	21
3	52	0.01	0
3	87	0.02	126
3	118	0.03	0
3	157	0.04	0
3	198	0.05	41
3	227	0.06	0
3	270	0.07	0
3	303	0.08	23
3	348	0.09	0
3	385	0.1	0
3	424	0.11	167
3	463	0.12	0
3	500	0.13	27
3	539	0.14	0
3	576	0.15	0
3	607	0.16	54
3	652	0.17	42
3	695	0.18	5
3	732	0.19	0
3	767	0.2	96
3	806	0.21	0
3	837	0.22	108
3	886	0.23	0
3	909	0.24	148
3	944	0.25	20
3	987	0.26	115
3	1016	0.27	24
3	1055	0.28	73
3	1088	0.29	0
3	1129	0.3	51
3	1170	0.31	54
3	1193	0.32	0
3	1226	0.33	0
3	1261	0.34	6
3	1302	0.35	0
3	1339	0.36	0
3	1386	0.37	73
3	1413	0.38	13
3	1454	0.39	0
3	1485	0.4	44
3	1524	0.41	171
3	1565	0.42	0
3	1600	0.43	144
3	1643	0.44	50
3	1680	0.45	0
3	1705	0.46	44
3	1738	0.47	0
3	1773	0.48	144
3	1816	0.49	53
3	1849	0.5	76
3	1876	0.51	0
3	1903	0.52	48
3	1946	0.53	0
3	1985	0.54	97
3	2022	0.55	10
3	2053	0.56	63
3	2088	0.57	0
3	2127	0.58	210
3	2160	0.59	0
3	2199	0.6	0
3	2236	0.61	0
3	2277	0.62	251
3	2306	0.63	67
3	2333	0.64	9
3	2374	0.65	24
3	2409	0.66	56
3	2444	0.67	0
3	2471	0.68	129
3	2496	0.69	0
3	2533	0.7	37
3	2570	0.71	0
3	2603	0.72	0
3	2640	0.73	37
3	2681	0.74	103
3	2720	0.75	170
3	2761	0.76	0
3	2798	0.77	0
3	2829	0.78	117
3	2862	0.79	0
3	2885	0.8	25
3	2916	0.81	0
3	2961	0.82	0
3	3006	0.83	109
3	3059	0.84	0
3	3100	0.85	54
3	3131	0.86	0
3	3156	0.87	0
3	3197	0.88	308
3	3238	0.89	63
3	3271	0.9	85
3	3314	0.91	0
3	3335	0.92	55
3	3362	0.93	0
3	3405	0.94	0
3	3434	0.95	123
3	3465	0.96	57
3	3498	0.97	62
3	3531	0.98	0
3	3572	0.99	0
3	3603	1	65
3	3636	1.01	163
3	3677	1.02	51
3	3714	1.03	178
3	3751	1.04	0
3	3782	1.05	0
3	3815	1.06	128
3	3846	1.07	34
3	3879	1.08	0
3	3918	1.09	0
3	3961	1.1	0
3	3998	1.11	0
3	4051	1.12	35
3	4086	1.13	0
3	4123	1.14	0
3	4162	1.15	0
3	4203	1.16	0
3	4240	1.17	221
3	4271	1.18	97
3	4300	1.19	0
3	4337	1.2	46
3	4374	1.21	0
3	4409	1.22	0
3	4452	1.23	0
3	4481	1.24	0
3	4524	1.25	0
3	4561	1.26	83
3	4616	1.27	0
3	4651	1.28	0
3	4692	1.29	0
3	4725	1.3	0
3	4754	1.31	0
3	4797	1.32	63
3	4826	1.33	0
3	4863	1.34	34
3	4894	1.35	42
3	4931	1.36	46
3	4964	1.37	69
3	4987	1.38	0
3	5040	1.39	74
3	5091	1.4	175
3	5126	1.41	100
3	5171	1.42	0
3	5204	1.43	0
3	5227	1.44	311
3	5258	1.45	0
3	5295	1.46	0
3	5334	1.47	49
3	5371	1.48	104
3	5404	1.49	0
3	5441	1.5	73
3	5478	1.51	168
3	5513	1.52	46
3	5550	1.53	64
3	5587	1.54	0
3	5614	1.55	0
3	5653	1.56	3
3	5692	1.57	0
3	5725	1.58	99
3	5762	1.59	209
3	5789	1.6	0
3	5828	1.61	0
3	5859	1.62	107
3	5888	1.63	0
3	5911	1.64	30
3	5950	1.65	62
3	5981	1.66	142
3	6020	1.67	0
3	6055	1.68	97
3	6096	1.69	114
3	6123	1.7	46
3	6160	1.71	0
3	6191	1.72	0
3	6224	1.73	116
3	6257	1.74	0
3	6294	1.75	274
3	6329	1.76	0
3	6374	1.77	7
3	6405	1.78	38
3	6440	1.79	7
3	6479	1.8	0
3	6518	1.81	50
3	6553	1.82	74
3	6576	1.83	0
3	6603	1.84	112
3	6630	1.85	0
3	6667	1.86	57
3	6702	1.87	0
3	6741	1.88	74
3	6778	1.89	32
3	6811	1.9	11
3	6856	1.91	55
3	6887	1.92	0
3	6910	1.93	0
3	6939	1.94	0
3	6970	1.95	0
3	7017	1.96	52
3	7048	1.97	65
3	7089	1.98	157
3	7124	1.99	20
3	7167	2	0
3	7204	2.01	54
3	7245	2.02	0
3	7278	2.03	0
3	7313	2.04	373
3	7344	2.05	0
3	7387	2.06	11
3	7414	2.07	112
3	7455	2.08	89
3	7494	2.09	119
3	7529	2.1	0
3	7576	2.11	14
3	7611	2.12	0
3	7644	2.13	49
3	7681	2.14	40
3	7710	2.15	0
3	7747	2.16	0
3	7776	2.17	44
3	7821	2.18	20
3	7856	2.19	0
3	7899	2.2	57
3	7928	2.21	2
3	7969	2.22	0
3	8008	2.23	76
3	8057	2.24	0
3	8084	2.25	99
3	8123	2.26	0
3	8152	2.27	10
3	8199	2.28	0
3	8240	2.29	136
3	8273	2.3	63
3	8316	2.31	91
3	8347	2.32	40
3	8384	2.33	61
3	8415	2.34	0
3	8456	2.35	0
3	8489	2.36	47
3	8528	2.37	77
3	8561	2.38	0
3	8586	2.39	0
3	8621	2.4	41
3	8664	2.41	36
3	8693	2.42	93
3	8726	2.43	0
3	8755	2.44	0
3	8788	2.45	0
3	8825	2.46	46
3	8856	2.47	2
3	8893	2.48	0
3	8926	2.49	3
3	8947	2.5	26
3	8988	2.51	0
3	9025	2.52	69
3	9058	2.53	0
3	9095	2.54	0
3	9142	2.55	18
3	9169	2.56	0
3	9202	2.57	53
3	9239	2.58	0
3	9278	2.59	51
3	9313	2.6	87
3	9346	2.61	0
3	9395	2.62	289
3	9426	2.63	138
3	9465	2.64	83
3	9490	2.65	118
3	9521	2.66	0
3	9560	2.67	135
3	9587	2.68	0
3	9624	2.69	74
3	9669	2.7	122
3	9720	2.71	6
3	9765	2.72	0
3	9812	2.73	0
3	9853	2.74	275
3	9878	2.75	47
3	9909	2.76	0
3	9946	2.77	12
3	9987	2.78	64
3	10010	2.79	82
3	10051	2.8	0
3	10090	2.81	200
3	10123	2.82	0
3	10156	2.83	72
3	10201	2.84	0
3	10242	2.85	13
3	10285	2.86	134
3	10320	2.87	132
3	10357	2.88	12
3	10388	2.89	0
3	10425	2.9	0
3	10460	2.91	66
3	10495	2.92	27
3	10526	2.93	70
3	10559	2.94	70
3	10592	2.95	0
3	10625	2.96	0
3	10664	2.97	80
3	10713	2.98	0
3	10752	2.99	0
3	10791	3	68
3	10830	3.01	45
3	10865	3.02	66
3	10900	3.03	39
3	10943	3.04	58
3	10974	3.05	29
3	11011	3.06	57
3	11044	3.07	160
3	11095	3.08	15
3	11138	3.09	0
3	11177	3.1	0
3	11210	3.11	183
3	11231	3.12	25
3	11262	3.13	0
3	11309	3.14	49
3	11344	3.15	0
3	11381	3.16	61
3	11422	3.17	0
3	11467	3.18	69
3	11510	3.19	5
3	11539	3.2	47
3	11572	3.21	0
3	11611	3.22	0
3	11636	3.23	149
3	11665	3.24	31
3	11706	3.25	0
3	11737	3.26	99
3	11788	3.27	0
3	11823	3.28	23
3	11848	3.29	0
3	11893	3.3	86
3	11922	3.31	72
3	11963	3.32	80
3	12008	3.33	101
3	12041	3.34	125
3	12072	3.35	0
3	12111	3.36	20
3	12154	3.37	123
3	12193	3.38	0
3	12224	3.39	37
3	12255	3.4	52
3	12284	3.41	0
3	12329	3.42	48
3	12360	3.43	121
3	12401	3.44	93
3	12428	3.45	50
3	12485	3.46	41
3	12522	3.47	0
3	12549	3.48	3
3	12576	3.49	88
3	12611	3.5	162
3	12636	3.51	0
3	12669	3.52	0
3	12718	3.53	47
3	12753	3.54	43
3	12788	3.55	17
3	12837	3.56	56
3	12864	3.57	89
3	12901	3.58	50
3	12930	3.59	0
3	12963	3.6	52
3	12998	3.61	14
3	13039	3.62	18
3	13068	3.63	22
3	13109	3.64	51
3	13156	3.65	39
3	13201	3.66	0
3	13242	3.67	0
3	13281	3.68	197
3	13326	3.69	47
3	13359	3.7	0
3	13394	3.71	0
3	13429	3.72	28
3	13472	3.73	135
3	13509	3.74	61
3	13554	3.75	21
3	13585	3.76	62
3	13624	3.77	62
3	13659	3.78	170
3	13694	3.79	0
3	13747	3.8	115
3	13784	3.81	56
3	13843	3.82	43
3	13876	3.83	55
3	13913	3.84	0
3	13946	3.85	50
3	13967	3.86	0
3	13994	3.87	29
3	14033	3.88	0
3	14064	3.89	0
3	14093	3.9	14
3	14138	3.91	0
3	14167	3.92	0
3	14194	3.93	404
3	14235	3.94	0
3	14274	3.95	41
3	14313	3.96	18
3	14354	3.97	79
3	14393	3.98	0
3	14434	3.99	129
3	14461	4	30
3	14496	4.01	51
3	14523	4.02	0
3	14550	4.03	120
3	14583	4.04	0
3	14618	4.05	0
3	14661	4.06	0
3	14696	4.07	38
3	14729	4.08	66
3	14780	4.09	0
3	14813	4.1	0
3	14840	4.11	129
3	14869	4.12	20
3	14918	4.13	0
3	14953	4.14	57
3	14988	4.15	19
3	15025	4.16	0
3	15056	4.17	0
3	15091	4.18	156
3	15122	4.19	0
3	15159	4.2	42
3	15192	4.21	37
3	15235	4.22	70
3	15280	4.23	52
3	15315	4.24	41
3	15346	4.25	49
3	15389	4.26	0
3	15410	4.27	82
3	15461	4.28	0
3	15500	4.29	43
3	15543	4.3	10
3	15572	4.31	0
3	15621	4.32	0
3	15654	4.33	0
3	15699	4.34	0
3	15724	4.35	73
3	15753	4.36	0
3	15780	4.37	114
3	15813	4.38	0
3	15842	4.39	112
3	15877	4.4	20
3	15904	4.41	0
3	15933	4.42	0
3	15966	4.43	0
3	16005	4.44	0
3	16038	4.45	81
3	16073	4.46	12
3	16116	4.47	48
3	16159	4.48	7
3	16206	4.49	99
3	16239	4.5	0
3	16272	4.51	7
3	16315	4.52	13
3	16340	4.53	13
3	16371	4.54	0
3	16414	4.55	21
3	16447	4.56	0
3	16472	4.57	17
3	16513	4.58	18
3	16538	4.59	40
3	16585	4.6	0
3	16616	4.61	2
3	16653	4.62	0
3	16688	4.63	0
3	16725	4.64	120
3	16750	4.65	0
3	16785	4.66	86
3	16820	4.67	49
3	16853	4.68	0
3	16898	4.69	0
3	16933	4.7	99
3	16962	4.71	0
3	16995	4.72	0
3	17036	4.73	0
3	17087	4.74	53
3	17122	4.75	45
3	17175	4.76	0
3	17208	4.77	0
3	17237	4.78	90
3	17270	4.79	106
3	17307	4.8	75
3	17348	4.81	0
3	17383	4.82	32
3	17418	4.83	121
3	17473	4.84	74
3	17512	4.85	46
3	17533	4.86	39
3	17568	4.87	90
3	17603	4.88	0
3	17642	4.89	71
3	17673	4.9	145
3	17704	4.91	2
3	17741	4.92	98
3	17776	4.93	68
3	17813	4.94	72
3	17844	4.95	26
3	17875	4.96	0
3	17916	4.97	0
3	17943	4.98	75
3	17994	4.99	5
3	18027	5	83
3	18060	5.01	9
3	18089	5.02	49
3	18120	5.03	103
3	18157	5.04	0
3	18202	5.05	87
3	18233	5.06	0
3	18264	5.07	144
3	18297	5.08	0
3	18330	5.09	0
3	18365	5.1	124
3	18412	5.11	77
3	18451	5.12	41
3	18490	5.13	19
3	18517	5.14	120
3	18554	5.15	148
3	18589	5.16	0
3	18630	5.17	63
3	18663	5.18	19
3	18706	5.19	0
3	18745	5.2	52
3	18780	5.21	66
3	18821	5.22	0
3	18844	5.23	192
3	18885	5.24	73
3	18920	5.25	24
3	18947	5.26	64
3	18986	5.27	9
3	19021	5.28	64
3	19044	5.29	11
3	19077	5.3	4
3	19116	5.31	107
3	19155	5.32	24
3	19184	5.33	58
3	19227	5.34	0
3	19262	5.35	105
3	19305	5.36	0
3	19336	5.37	26
3	19369	5.38	43
3	19410	5.39	40
3	19451	5.4	102
3	19486	5.41	55
3	19511	5.42	102
3	19548	5.43	0
3	19581	5.44	0
3	19620	5.45	98
3	19659	5.46	0
3	19698	5.47	51
3	19735	5.48	0
3	19778	5.49	0
3	19805	5.5	4
3	19852	5.51	19
3	19891	5.52	0
3	19914	5.53	0
3	19951	5.54	0
3	20004	5.55	123
3	20045	5.56	106
3	20076	5.57	0
3	20103	5.58	0
3	20134	5.59	19
3	20175	5.6	0
3	20214	5.61	0
3	20251	5.62	87
3	20292	5.63	161
3	20327	5.64	142
3	20350	5.65	0
3	20383	5.66	0
3	20428	5.67	0
3	20455	5.68	84
3	20490	5.69	0
3	20531	5.7	119
3	20578	5.71	48
3	20609	5.72	68
3	20658	5.73	0
3	20683	5.74	0
3	20724	5.75	0
3	20751	5.76	0
3	20770	5.77	285
3	20809	5.78	0
3	20864	5.79	84
3	20903	5.8	0
3	20954	5.81	89
3	20991	5.82	0
3	21022	5.83	80
3	21059	5.84	0
3	21090	5.85	30
3	21137	5.86	0
3	21166	5.87	64
3	21199	5.88	0
3	21232	5.89	122
3	21261	5.9	40
3	21294	5.91	0
3	21341	5.92	50
3	21374	5.93	143
3	21409	5.94	36
3	21436	5.95	54
3	21479	5.96	163
3	21524	5.97	0
3	21557	5.98	191
3	21596	5.99	0
3	21635	6	177
3	21666	6.01	127
3	21691	6.02	0
3	21752	6.03	0
3	21785	6.04	131
3	21810	6.05	0
3	21839	6.06	119
3	21880	6.07	24
3	21925	6.08	0
3	21962	6.09	0
3	21997	6.1	51
3	22028	6.11	55
3	22071	6.12	60
3	22108	6.13	70
3	22137	6.14	56
3	22166	6.15	0
3	22209	6.16	73
3	22234	6.17	56
3	22271	6.18	0
3	22304	6.19	58
3	22349	6.2	100
3	22386	6.21	0
3	22429	6.22	37
3	22468	6.23	17
3	22499	6.24	0
3	22524	6.25	163
3	22555	6.26	71
3	22590	6.27	52
3	22633	6.28	0
3	22672	6.29	114
3	22719	6.3	25
3	22754	6.31	0
3	22797	6.32	113
3	22830	6.33	60
3	22859	6.34	53
3	22898	6.35	0
3	22943	6.36	63
3	22974	6.37	0
3	23005	6.38	91
3	23038	6.39	0
3	23083	6.4	0
3	23118	6.41	107
3	23155	6.42	18
3	23192	6.43	88
3	23239	6.44	0
3	23280	6.45	25
3	23313	6.46	117
3	23354	6.47	32
3	23385	6.48	31
3	23430	6.49	49
3	23459	6.5	24
3	23508	6.51	0
3	23543	6.52	86
3	23588	6.53	0
3	23621	6.54	112
3	23658	6.55	65
3	23685	6.56	67
3	23718	6.57	32
3	23741	6.58	68
3	23794	6.59	0
3	23833	6.6	35
3	23856	6.61	0
3	23895	6.62	72
3	23940	6.63	49
3	23973	6.64	0
3	24006	6.65	197
3	24047	6.66	146
3	24086	6.67	0
3	24125	6.68	29
3	24156	6.69	47
3	24201	6.7	38
3	24240	6.71	0
3	24285	6.72	173
3	24314	6.73	7
3	24355	6.74	0
3	24394	6.75	0
3	24431	6.76	27
3	24468	6.77	121
3	24495	6.78	0
3	24528	6.79	0
3	24567	6.8	162
3	24600	6.81	0
3	24631	6.82	75
3	24670	6.83	42
3	24699	6.84	20
3	24734	6.85	83
3	24767	6.86	42
3	24814	6.87	27
3	24849	6.88	78
3	24884	6.89	0
3	24919	6.9	1
3	24948	6.91	47
3	25001	6.92	107
3	25052	6.93	184
3	25093	6.94	230
3	25134	6.95	0
3	25175	6.96	0
3	25218	6.97	0
3	25249	6.98	261
3	25282	6.99	132
3	25309	7	0
3	25346	7.01	50
3	25391	7.02	108
3	25434	7.03	70
3	25471	7.04	0
3	25504	7.05	79
3	25537	7.06	0
3	25580	7.07	181
3	25605	7.08	72
3	25648	7.09	0
3	25691	7.1	0
3	25722	7.11	42
3	25753	7.12	0
3	25794	7.13	0
3	25825	7.14	48
3	25858	7.15	0
3	25895	7.16	0
3	25940	7.17	0
3	25975	7.18	0
3	26020	7.19	270
3	26053	7.2	0
3	26078	7.21	14
3	26127	7.22	0
3	26154	7.23	64
3	26191	7.24	0
3	26224	7.25	55
3	26269	7.26	0
3	26318	7.27	179
3	26357	7.28	0
3	26406	7.29	0
3	26449	7.3	42
3	26486	7.31	0
3	26517	7.32	67
3	26554	7.33	0
3	26589	7.34	405
3	26624	7.35	78
3	26667	7.36	105
3	26706	7.37	0
3	26737	7.38	0
3	26780	7.39	48
3	26811	7.4	179
3	26852	7.41	12
3	26879	7.42	105
3	26918	7.43	0
3	26941	7.44	97
3	26966	7.45	58
3	27001	7.46	62
3	27024	7.47	69
3	27073	7.48	0
3	27102	7.49	0
3	27125	7.5	38
3	27156	7.51	1
3	27189	7.52	0
3	27228	7.53	59
3	27265	7.54	83
3	27314	7.55	15
3	27347	7.56	56
3	27378	7.57	72
3	27423	7.58	0
3	27456	7.59	212
3	27493	7.6	68
3	27532	7.61	6
3	27569	7.62	84
3	27618	7.63	0
3	27653	7.64	71
3	27692	7.65	25
3	27725	7.66	48
3	27764	7.67	59
3	27789	7.68	124
3	27826	7.69	0
3	27861	7.7	72
3	27894	7.71	0
3	27923	7.72	24
3	27958	7.73	0
3	27995	7.74	0
3	28026	7.75	61
3	28055	7.76	31
3	28098	7.77	16
3	28123	7.78	15
3	28164	7.79	74
3	28199	7.8	0
3	28232	7.81	211
3	28265	7.82	51
3	28306	7.83	74
3	28339	7.84	114
3	28362	7.85	28
3	28393	7.86	0
3	28428	7.87	15
3	28459	7.88	56
3	28496	7.89	51
3	28535	7.9	4
3	28568	7.91	24
3	28609	7.92	63
3	28652	7.93	52
3	28689	7.94	0
3	28716	7.95	0
3	28745	7.96	26
3	28768	7.97	80
3	28793	7.98	0
3	28830	7.99	0
3	28853	8	27
3	28912	8.01	58
3	28941	8.02	126
3	28964	8.03	0
3	28999	8.04	30
3	29028	8.05	40
3	29075	8.06	71
3	29114	8.07	55
3	29147	8.08	61
3	29184	8.09	0
3	29227	8.1	0
3	29264	8.11	37
3	29305	8.12	98
3	29332	8.13	75
3	29367	8.14	46
3	29416	8.15	58
3	29449	8.16	144
3	29484	8.17	49
3	29509	8.18	140
3	29546	8.19	24
3	29581	8.2	45
3	29602	8.21	19
3	29643	8.22	0
3	29670	8.23	47
3	29717	8.24	6
3	29754	8.25	0
3	29797	8.26	61
3	29838	8.27	22
3	29887	8.28	18
3	29928	8.29	0
3	29969	8.3	109
3	30010	8.31	0
3	30043	8.32	8
3	30074	8.33	0
3	30111	8.34	83
3	30146	8.35	69
3	30201	8.36	10
3	30246	8.37	25
3	30291	8.38	34
3	30332	8.39	0
3	30365	8.4	239
3	30396	8.41	85
3	30433	8.42	24
3	30458	8.43	46
3	30491	8.44	50
3	30528	8.45	0
3	30567	8.46	0
3	30608	8.47	0
3	30637	8.48	173
3	30658	8.49	69
3	30695	8.5	44
3	30746	8.51	40
3	30781	8.52	49
3	30826	8.53	52
3	30853	8.54	0
3	30888	8.55	0
3	30937	8.56	0
3	30968	8.57	187
3	31005	8.58	31
3	31042	8.59	19
3	31063	8.6	0
3	31098	8.61	0
3	31149	8.62	48
3	31184	8.63	60
3	31223	8.64	66
3	31258	8.65	3
3	31303	8.66	20
3	31336	8.67	76
3	31379	8.68	7
3	31412	8.69	0
3	31463	8.7	41
3	31500	8.71	52
3	31531	8.72	63
3	31562	8.73	127
3	31607	8.74	60
3	31646	8.75	0
3	31673	8.76	0
3	31716	8.77	10
3	31763	8.78	95
3	31792	8.79	41
3	31833	8.8	20
3	31870	8.81	0
3	31907	8.82	33
3	31944	8.83	28
3	31977	8.84	0
3	32026	8.85	0
3	32067	8.86	101
3	32112	8.87	142
3	32153	8.88	128
3	32186	8.89	29
3	32217	8.9	47
3	32248	8.91	151
3	32275	8.92	115
3	32314	8.93	0
3	32345	8.94	100
3	32392	8.95	34
3	32433	8.96	0
3	32476	8.97	30
3	32501	8.98	2
3	32538	8.99	65
3	32569	9	97
3	32616	9.01	2
3	32657	9.02	122
3	32690	9.03	0
3	32733	9.04	64
3	32782	9.05	49
3	32817	9.06	0
3	32850	9.07	52
3	32885	9.08	56
3	32926	9.09	0
3	32967	9.1	85
3	32996	9.11	0
3	33033	9.12	30
3	33052	9.13	78
3	33081	9.14	157
3	33126	9.15	12
3	33153	9.16	0
3	33190	9.17	129
3	33229	9.18	0
3	33266	9.19	0
3	33309	9.2	125
3	33348	9.21	73
3	33373	9.22	269
3	33398	9.23	0
3	33427	9.24	152
3	33460	9.25	34
3	33495	9.26	65
3	33532	9.27	0
3	33567	9.28	131
3	33598	9.29	4
3	33639	9.3	37
3	33670	9.31	0
3	33707	9.32	0
3	33738	9.33	25
3	33767	9.34	57
3	33814	9.35	106
3	33847	9.36	116
3	33878	9.37	0
3	33909	9.38	22
3	33942	9.39	70
3	33977	9.4	0
3	34010	9.41	0
3	34049	9.42	39
3	34086	9.43	0
3	34131	9.44	143
3	34162	9.45	0
3	34183	9.46	151
3	34210	9.47	0
3	34253	9.48	32
3	34284	9.49	66
3	34321	9.5	0
3	34350	9.51	0
3	34377	9.52	59
3	34424	9.53	0
3	34457	9.54	107
3	34488	9.55	0
3	34521	9.56	55
3	34550	9.57	25
3	34585	9.58	48
3	34616	9.59	106
3	34653	9.6	0
3	34700	9.61	86
3	34733	9.62	56
3	34778	9.63	74
3	34821	9.64	0
3	34870	9.65	122
3	34893	9.66	126
3	34930	9.67	58
3	34959	9.68	105
3	34992	9.69	0
3	35021	9.7	0
3	35066	9.71	0
3	35099	9.72	0
3	35128	9.73	65
3	35165	9.74	0
3	35202	9.75	0
3	35245	9.76	100
3	35274	9.77	30
3	35305	9.78	55
3	35350	9.79	1
3	35395	9.8	0
3	35428	9.81	40
3	35455	9.82	164
3	35482	9.83	61
3	35507	9.84	16
3	35556	9.85	0
3	35597	9.86	0
3	35628	9.87	53
3	35665	9.88	0
3	35708	9.89	22
3	35741	9.9	81
3	35774	9.91	15
3	35811	9.92	117
3	35846	9.93	0
3	35875	9.94	0
3	35908	9.95	0
3	35955	9.96	57
3	35996	9.97	33
3	36043	9.98	67
3	36078	9.99	125
3	36117	10	0
4	52	0.01	0
4	87	0.02	73
4	118	0.03	263
4	157	0.04	101
4	198	0.05	9
4	227	0.06	0
4	270	0.07	41
4	303	0.08	60
4	348	0.09	0
4	385	0.1	0
4	424	0.11	265
4	463	0.12	0
4	500	0.13	0
4	539	0.14	143
4	576	0.15	70
4	607	0.16	0
4	652	0.17	0
4	695	0.18	204
4	732	0.19	170
4	767	0.2	0
4	806	0.21	0
4	837	0.22	28
4	886	0.23	0
4	909	0.24	0
4	944	0.25	75
4	987	0.26	6
4	1016	0.27	121
4	1055	0.28	0
4	1088	0.29	23
4	1129	0.3	0
4	1170	0.31	135
4	1193	0.32	73
4	1226	0.33	0
4	1261	0.34	59
4	1302	0.35	0
4	1339	0.36	24
4	1386	0.37	73
4	1413	0.38	58
4	1454	0.39	0
4	1485	0.4	0
4	1524	0.41	182
4	1565	0.42	54
4	1600	0.43	49
4	1643	0.44	0
4	1680	0.45	13
4	1705	0.46	19
4	1738	0.47	0
4	1773	0.48	0
4	1816	0.49	82
4	1849	0.5	0
4	1876	0.51	0
4	1903	0.52	0
4	1946	0.53	75
4	1985	0.54	72
4	2022	0.55	0
4	2053	0.56	61
4	2088	0.57	0
4	2127	0.58	29
4	2160	0.59	0
4	2199	0.6	0
4	2236	0.61	0
4	2277	0.62	146
4	2306	0.63	0
4	2333	0.64	0
4	2374	0.65	217
4	2409	0.66	29
4	2444	0.67	17
4	2471	0.68	0
4	2496	0.69	87
4	2533	0.7	0
4	2570	0.71	69
4	2603	0.72	35
4	2640	0.73	0
4	2681	0.74	0
4	2720	0.75	0
4	2761	0.76	210
4	2798	0.77	0
4	2829	0.78	0
4	2862	0.79	0
4	2885	0.8	94
4	2916	0.81	56
4	2961	0.82	0
4	3006	0.83	56
4	3059	0.84	55
4	3100	0.85	61
4	3131	0.86	2
4	3156	0.87	18
4	3197	0.88	58
4	3238	0.89	0
4	3271	0.9	152
4	3314	0.91	0
4	3335	0.92	71
4	3362	0.93	121
4	3405	0.94	33
4	3434	0.95	34
4	3465	0.96	0
4	3498	0.97	62
4	3531	0.98	0
4	3572	0.99	0
4	3603	1	0
4	3636	1.01	143
4	3677	1.02	0
4	3714	1.03	91
4	3751	1.04	0
4	3782	1.05	33
4	3815	1.06	79
4	3846	1.07	0
4	3879	1.08	88
4	3918	1.09	70
4	3961	1.1	167
4	3998	1.11	0
4	4051	1.12	0
4	4086	1.13	87
4	4123	1.14	0
4	4162	1.15	239
4	4203	1.16	76
4	4240	1.17	65
4	4271	1.18	0
4	4300	1.19	168
4	4337	1.2	42
4	4374	1.21	0
4	4409	1.22	43
4	4452	1.23	92
4	4481	1.24	29
4	4524	1.25	0
4	4561	1.26	0
4	4616	1.27	0
4	4651	1.28	0
4	4692	1.29	45
4	4725	1.3	38
4	4754	1.31	0
4	4797	1.32	0
4	4826	1.33	304
4	4863	1.34	0
4	4894	1.35	84
4	4931	1.36	0
4	4964	1.37	65
4	4987	1.38	0
4	5040	1.39	0
4	5091	1.4	0
4	5126	1.41	0
4	5171	1.42	0
4	5204	1.43	0
4	5227	1.44	37
4	5258	1.45	0
4	5295	1.46	176
4	5334	1.47	51
4	5371	1.48	77
4	5404	1.49	0
4	5441	1.5	34
4	5478	1.51	207
4	5513	1.52	57
4	5550	1.53	0
4	5587	1.54	0
4	5614	1.55	9
4	5653	1.56	0
4	5692	1.57	0
4	5725	1.58	195
4	5762	1.59	12
4	5789	1.6	125
4	5828	1.61	0
4	5859	1.62	0
4	5888	1.63	171
4	5911	1.64	40
4	5950	1.65	0
4	5981	1.66	67
4	6020	1.67	65
4	6055	1.68	72
4	6096	1.69	0
4	6123	1.7	184
4	6160	1.71	36
4	6191	1.72	89
4	6224	1.73	0
4	6257	1.74	0
4	6294	1.75	43
4	6329	1.76	48
4	6374	1.77	0
4	6405	1.78	0
4	6440	1.79	0
4	6479	1.8	0
4	6518	1.81	119
4	6553	1.82	0
4	6576	1.83	57
4	6603	1.84	232
4	6630	1.85	67
4	6667	1.86	32
4	6702	1.87	0
4	6741	1.88	226
4	6778	1.89	130
4	6811	1.9	103
4	6856	1.91	87
4	6887	1.92	37
4	6910	1.93	0
4	6939	1.94	68
4	6970	1.95	100
4	7017	1.96	77
4	7048	1.97	58
4	7089	1.98	0
4	7124	1.99	62
4	7167	2	3
4	7204	2.01	0
4	7245	2.02	0
4	7278	2.03	0
4	7313	2.04	0
4	7344	2.05	247
4	7387	2.06	62
4	7414	2.07	0
4	7455	2.08	34
4	7494	2.09	53
4	7529	2.1	82
4	7576	2.11	32
4	7611	2.12	0
4	7644	2.13	115
4	7681	2.14	0
4	7710	2.15	0
4	7747	2.16	138
4	7776	2.17	0
4	7821	2.18	65
4	7856	2.19	124
4	7899	2.2	6
4	7928	2.21	104
4	7969	2.22	152
4	8008	2.23	109
4	8057	2.24	70
4	8084	2.25	0
4	8123	2.26	244
4	8152	2.27	37
4	8199	2.28	0
4	8240	2.29	25
4	8273	2.3	20
4	8316	2.31	24
4	8347	2.32	15
4	8384	2.33	93
4	8415	2.34	53
4	8456	2.35	29
4	8489	2.36	56
4	8528	2.37	0
4	8561	2.38	60
4	8586	2.39	39
4	8621	2.4	0
4	8664	2.41	45
4	8693	2.42	0
4	8726	2.43	126
4	8755	2.44	90
4	8788	2.45	58
4	8825	2.46	0
4	8856	2.47	0
4	8893	2.48	63
4	8926	2.49	0
4	8947	2.5	33
4	8988	2.51	72
4	9025	2.52	75
4	9058	2.53	0
4	9095	2.54	46
4	9142	2.55	62
4	9169	2.56	0
4	9202	2.57	5
4	9239	2.58	95
4	9278	2.59	89
4	9313	2.6	23
4	9346	2.61	0
4	9395	2.62	0
4	9426	2.63	149
4	9465	2.64	122
4	9490	2.65	41
4	9521	2.66	62
4	9560	2.67	0
4	9587	2.68	16
4	9624	2.69	148
4	9669	2.7	127
4	9720	2.71	41
4	9765	2.72	0
4	9812	2.73	0
4	9853	2.74	172
4	9878	2.75	0
4	9909	2.76	0
4	9946	2.77	172
4	9987	2.78	5
4	10010	2.79	11
4	10051	2.8	0
4	10090	2.81	15
4	10123	2.82	71
4	10156	2.83	39
4	10201	2.84	0
4	10242	2.85	36
4	10285	2.86	107
4	10320	2.87	86
4	10357	2.88	0
4	10388	2.89	37
4	10425	2.9	0
4	10460	2.91	49
4	10495	2.92	20
4	10526	2.93	0
4	10559	2.94	73
4	10592	2.95	14
4	10625	2.96	71
4	10664	2.97	63
4	10713	2.98	69
4	10752	2.99	0
4	10791	3	152
4	10830	3.01	86
4	10865	3.02	92
4	10900	3.03	63
4	10943	3.04	0
4	10974	3.05	308
4	11011	3.06	36
4	11044	3.07	222
4	11095	3.08	6
4	11138	3.09	2
4	11177	3.1	0
4	11210	3.11	30
4	11231	3.12	15
4	11262	3.13	0
4	11309	3.14	0
4	11344	3.15	375
4	11381	3.16	0
4	11422	3.17	116
4	11467	3.18	120
4	11510	3.19	1
4	11539	3.2	40
4	11572	3.21	49
4	11611	3.22	0
4	11636	3.23	0
4	11665	3.24	49
4	11706	3.25	111
4	11737	3.26	121
4	11788	3.27	93
4	11823	3.28	14
4	11848	3.29	0
4	11893	3.3	33
4	11922	3.31	46
4	11963	3.32	0
4	12008	3.33	1
4	12041	3.34	0
4	12072	3.35	50
4	12111	3.36	0
4	12154	3.37	112
4	12193	3.38	0
4	12224	3.39	34
4	12255	3.4	35
4	12284	3.41	42
4	12329	3.42	39
4	12360	3.43	56
4	12401	3.44	0
4	12428	3.45	66
4	12485	3.46	41
4	12522	3.47	0
4	12549	3.48	0
4	12576	3.49	0
4	12611	3.5	265
4	12636	3.51	35
4	12669	3.52	0
4	12718	3.53	13
4	12753	3.54	39
4	12788	3.55	51
4	12837	3.56	40
4	12864	3.57	27
4	12901	3.58	15
4	12930	3.59	12
4	12963	3.6	20
4	12998	3.61	25
4	13039	3.62	0
4	13068	3.63	49
4	13109	3.64	0
4	13156	3.65	279
4	13201	3.66	50
4	13242	3.67	0
4	13281	3.68	137
4	13326	3.69	0
4	13359	3.7	0
4	13394	3.71	162
4	13429	3.72	84
4	13472	3.73	0
4	13509	3.74	64
4	13554	3.75	0
4	13585	3.76	254
4	13624	3.77	0
4	13659	3.78	32
4	13694	3.79	0
4	13747	3.8	0
4	13784	3.81	148
4	13843	3.82	0
4	13876	3.83	63
4	13913	3.84	0
4	13946	3.85	47
4	13967	3.86	0
4	13994	3.87	13
4	14033	3.88	0
4	14064	3.89	63
4	14093	3.9	0
4	14138	3.91	68
4	14167	3.92	0
4	14194	3.93	184
4	14235	3.94	0
4	14274	3.95	63
4	14313	3.96	72
4	14354	3.97	47
4	14393	3.98	146
4	14434	3.99	10
4	14461	4	128
4	14496	4.01	0
4	14523	4.02	0
4	14550	4.03	142
4	14583	4.04	47
4	14618	4.05	73
4	14661	4.06	45
4	14696	4.07	70
4	14729	4.08	65
4	14780	4.09	116
4	14813	4.1	92
4	14840	4.11	81
4	14869	4.12	22
4	14918	4.13	22
4	14953	4.14	0
4	14988	4.15	210
4	15025	4.16	0
4	15056	4.17	0
4	15091	4.18	142
4	15122	4.19	6
4	15159	4.2	0
4	15192	4.21	0
4	15235	4.22	0
4	15280	4.23	0
4	15315	4.24	50
4	15346	4.25	45
4	15389	4.26	69
4	15410	4.27	133
4	15461	4.28	21
4	15500	4.29	0
4	15543	4.3	0
4	15572	4.31	36
4	15621	4.32	161
4	15654	4.33	0
4	15699	4.34	247
4	15724	4.35	63
4	15753	4.36	0
4	15780	4.37	44
4	15813	4.38	80
4	15842	4.39	0
4	15877	4.4	61
4	15904	4.41	55
4	15933	4.42	0
4	15966	4.43	0
4	16005	4.44	17
4	16038	4.45	99
4	16073	4.46	46
4	16116	4.47	67
4	16159	4.48	12
4	16206	4.49	73
4	16239	4.5	0
4	16272	4.51	57
4	16315	4.52	0
4	16340	4.53	36
4	16371	4.54	0
4	16414	4.55	0
4	16447	4.56	159
4	16472	4.57	60
4	16513	4.58	101
4	16538	4.59	62
4	16585	4.6	68
4	16616	4.61	0
4	16653	4.62	0
4	16688	4.63	72
4	16725	4.64	0
4	16750	4.65	0
4	16785	4.66	149
4	16820	4.67	0
4	16853	4.68	0
4	16898	4.69	0
4	16933	4.7	0
4	16962	4.71	72
4	16995	4.72	13
4	17036	4.73	0
4	17087	4.74	125
4	17122	4.75	0
4	17175	4.76	68
4	17208	4.77	39
4	17237	4.78	0
4	17270	4.79	63
4	17307	4.8	0
4	17348	4.81	117
4	17383	4.82	64
4	17418	4.83	70
4	17473	4.84	0
4	17512	4.85	75
4	17533	4.86	0
4	17568	4.87	121
4	17603	4.88	74
4	17642	4.89	34
4	17673	4.9	63
4	17704	4.91	0
4	17741	4.92	0
4	17776	4.93	0
4	17813	4.94	43
4	17844	4.95	98
4	17875	4.96	139
4	17916	4.97	0
4	17943	4.98	120
4	17994	4.99	80
4	18027	5	47
4	18060	5.01	181
4	18089	5.02	14
4	18120	5.03	33
4	18157	5.04	85
4	18202	5.05	62
4	18233	5.06	0
4	18264	5.07	65
4	18297	5.08	165
4	18330	5.09	77
4	18365	5.1	44
4	18412	5.11	0
4	18451	5.12	119
4	18490	5.13	0
4	18517	5.14	23
4	18554	5.15	28
4	18589	5.16	45
4	18630	5.17	94
4	18663	5.18	129
4	18706	5.19	0
4	18745	5.2	83
4	18780	5.21	0
4	18821	5.22	97
4	18844	5.23	70
4	18885	5.24	0
4	18920	5.25	0
4	18947	5.26	37
4	18986	5.27	46
4	19021	5.28	0
4	19044	5.29	0
4	19077	5.3	8
4	19116	5.31	74
4	19155	5.32	24
4	19184	5.33	19
4	19227	5.34	0
4	19262	5.35	0
4	19305	5.36	28
4	19336	5.37	13
4	19369	5.38	0
4	19410	5.39	3
4	19451	5.4	57
4	19486	5.41	16
4	19511	5.42	0
4	19548	5.43	117
4	19581	5.44	0
4	19620	5.45	108
4	19659	5.46	46
4	19698	5.47	93
4	19735	5.48	2
4	19778	5.49	60
4	19805	5.5	125
4	19852	5.51	0
4	19891	5.52	31
4	19914	5.53	93
4	19951	5.54	0
4	20004	5.55	31
4	20045	5.56	0
4	20076	5.57	118
4	20103	5.58	65
4	20134	5.59	0
4	20175	5.6	130
4	20214	5.61	0
4	20251	5.62	0
4	20292	5.63	108
4	20327	5.64	163
4	20350	5.65	24
4	20383	5.66	96
4	20428	5.67	71
4	20455	5.68	5
4	20490	5.69	55
4	20531	5.7	0
4	20578	5.71	0
4	20609	5.72	0
4	20658	5.73	314
4	20683	5.74	68
4	20724	5.75	0
4	20751	5.76	0
4	20770	5.77	266
4	20809	5.78	0
4	20864	5.79	0
4	20903	5.8	0
4	20954	5.81	285
4	20991	5.82	33
4	21022	5.83	62
4	21059	5.84	0
4	21090	5.85	160
4	21137	5.86	0
4	21166	5.87	0
4	21199	5.88	52
4	21232	5.89	40
4	21261	5.9	0
4	21294	5.91	0
4	21341	5.92	96
4	21374	5.93	0
4	21409	5.94	70
4	21436	5.95	96
4	21479	5.96	71
4	21524	5.97	0
4	21557	5.98	109
4	21596	5.99	0
4	21635	6	211
4	21666	6.01	21
4	21691	6.02	36
4	21752	6.03	0
4	21785	6.04	51
4	21810	6.05	0
4	21839	6.06	38
4	21880	6.07	32
4	21925	6.08	16
4	21962	6.09	0
4	21997	6.1	100
4	22028	6.11	0
4	22071	6.12	0
4	22108	6.13	95
4	22137	6.14	133
4	22166	6.15	55
4	22209	6.16	0
4	22234	6.17	48
4	22271	6.18	38
4	22304	6.19	0
4	22349	6.2	60
4	22386	6.21	121
4	22429	6.22	51
4	22468	6.23	73
4	22499	6.24	0
4	22524	6.25	45
4	22555	6.26	22
4	22590	6.27	43
4	22633	6.28	0
4	22672	6.29	128
4	22719	6.3	146
4	22754	6.31	0
4	22797	6.32	158
4	22830	6.33	139
4	22859	6.34	0
4	22898	6.35	121
4	22943	6.36	0
4	22974	6.37	10
4	23005	6.38	40
4	23038	6.39	0
4	23083	6.4	0
4	23118	6.41	196
4	23155	6.42	0
4	23192	6.43	67
4	23239	6.44	63
4	23280	6.45	39
4	23313	6.46	0
4	23354	6.47	136
4	23385	6.48	0
4	23430	6.49	16
4	23459	6.5	0
4	23508	6.51	0
4	23543	6.52	0
4	23588	6.53	0
4	23621	6.54	10
4	23658	6.55	16
4	23685	6.56	69
4	23718	6.57	15
4	23741	6.58	0
4	23794	6.59	15
4	23833	6.6	0
4	23856	6.61	0
4	23895	6.62	0
4	23940	6.63	82
4	23973	6.64	69
4	24006	6.65	8
4	24047	6.66	0
4	24086	6.67	0
4	24125	6.68	87
4	24156	6.69	265
4	24201	6.7	60
4	24240	6.71	0
4	24285	6.72	18
4	24314	6.73	2
4	24355	6.74	0
4	24394	6.75	76
4	24431	6.76	68
4	24468	6.77	58
4	24495	6.78	111
4	24528	6.79	0
4	24567	6.8	52
4	24600	6.81	0
4	24631	6.82	64
4	24670	6.83	51
4	24699	6.84	43
4	24734	6.85	2
4	24767	6.86	22
4	24814	6.87	0
4	24849	6.88	0
4	24884	6.89	141
4	24919	6.9	38
4	24948	6.91	0
4	25001	6.92	2
4	25052	6.93	121
4	25093	6.94	46
4	25134	6.95	68
4	25175	6.96	0
4	25218	6.97	0
4	25249	6.98	137
4	25282	6.99	50
4	25309	7	24
4	25346	7.01	49
4	25391	7.02	55
4	25434	7.03	0
4	25471	7.04	74
4	25504	7.05	198
4	25537	7.06	0
4	25580	7.07	0
4	25605	7.08	28
4	25648	7.09	70
4	25691	7.1	155
4	25722	7.11	0
4	25753	7.12	33
4	25794	7.13	105
4	25825	7.14	69
4	25858	7.15	0
4	25895	7.16	52
4	25940	7.17	0
4	25975	7.18	0
4	26020	7.19	25
4	26053	7.2	140
4	26078	7.21	201
4	26127	7.22	46
4	26154	7.23	202
4	26191	7.24	0
4	26224	7.25	0
4	26269	7.26	0
4	26318	7.27	151
4	26357	7.28	0
4	26406	7.29	153
4	26449	7.3	0
4	26486	7.31	173
4	26517	7.32	48
4	26554	7.33	0
4	26589	7.34	13
4	26624	7.35	4
4	26667	7.36	67
4	26706	7.37	155
4	26737	7.38	0
4	26780	7.39	118
4	26811	7.4	120
4	26852	7.41	33
4	26879	7.42	0
4	26918	7.43	7
4	26941	7.44	0
4	26966	7.45	0
4	27001	7.46	26
4	27024	7.47	0
4	27073	7.48	0
4	27102	7.49	0
4	27125	7.5	0
4	27156	7.51	120
4	27189	7.52	239
4	27228	7.53	67
4	27265	7.54	81
4	27314	7.55	20
4	27347	7.56	116
4	27378	7.57	0
4	27423	7.58	0
4	27456	7.59	19
4	27493	7.6	68
4	27532	7.61	0
4	27569	7.62	59
4	27618	7.63	0
4	27653	7.64	116
4	27692	7.65	0
4	27725	7.66	1
4	27764	7.67	24
4	27789	7.68	23
4	27826	7.69	43
4	27861	7.7	63
4	27894	7.71	53
4	27923	7.72	272
4	27958	7.73	95
4	27995	7.74	137
4	28026	7.75	0
4	28055	7.76	228
4	28098	7.77	0
4	28123	7.78	124
4	28164	7.79	0
4	28199	7.8	22
4	28232	7.81	47
4	28265	7.82	0
4	28306	7.83	0
4	28339	7.84	130
4	28362	7.85	30
4	28393	7.86	0
4	28428	7.87	0
4	28459	7.88	66
4	28496	7.89	86
4	28535	7.9	23
4	28568	7.91	30
4	28609	7.92	0
4	28652	7.93	92
4	28689	7.94	30
4	28716	7.95	0
4	28745	7.96	51
4	28768	7.97	0
4	28793	7.98	0
4	28830	7.99	188
4	28853	8	50
4	28912	8.01	0
4	28941	8.02	26
4	28964	8.03	0
4	28999	8.04	0
4	29028	8.05	164
4	29075	8.06	61
4	29114	8.07	71
4	29147	8.08	13
4	29184	8.09	0
4	29227	8.1	12
4	29264	8.11	103
4	29305	8.12	94
4	29332	8.13	23
4	29367	8.14	27
4	29416	8.15	58
4	29449	8.16	77
4	29484	8.17	0
4	29509	8.18	0
4	29546	8.19	8
4	29581	8.2	0
4	29602	8.21	33
4	29643	8.22	0
4	29670	8.23	0
4	29717	8.24	67
4	29754	8.25	0
4	29797	8.26	54
4	29838	8.27	49
4	29887	8.28	9
4	29928	8.29	51
4	29969	8.3	30
4	30010	8.31	0
4	30043	8.32	42
4	30074	8.33	0
4	30111	8.34	238
4	30146	8.35	75
4	30201	8.36	106
4	30246	8.37	53
4	30291	8.38	74
4	30332	8.39	65
4	30365	8.4	0
4	30396	8.41	0
4	30433	8.42	55
4	30458	8.43	68
4	30491	8.44	61
4	30528	8.45	70
4	30567	8.46	138
4	30608	8.47	0
4	30637	8.48	128
4	30658	8.49	0
4	30695	8.5	0
4	30746	8.51	0
4	30781	8.52	0
4	30826	8.53	148
4	30853	8.54	118
4	30888	8.55	60
4	30937	8.56	0
4	30968	8.57	66
4	31005	8.58	0
4	31042	8.59	57
4	31063	8.6	36
4	31098	8.61	0
4	31149	8.62	0
4	31184	8.63	48
4	31223	8.64	0
4	31258	8.65	84
4	31303	8.66	0
4	31336	8.67	0
4	31379	8.68	59
4	31412	8.69	32
4	31463	8.7	76
4	31500	8.71	73
4	31531	8.72	0
4	31562	8.73	0
4	31607	8.74	119
4	31646	8.75	135
4	31673	8.76	101
4	31716	8.77	0
4	31763	8.78	0
4	31792	8.79	60
4	31833	8.8	0
4	31870	8.81	55
4	31907	8.82	36
4	31944	8.83	76
4	31977	8.84	0
4	32026	8.85	52
4	32067	8.86	219
4	32112	8.87	0
4	32153	8.88	66
4	32186	8.89	0
4	32217	8.9	132
4	32248	8.91	0
4	32275	8.92	87
4	32314	8.93	1
4	32345	8.94	78
4	32392	8.95	44
4	32433	8.96	0
4	32476	8.97	215
4	32501	8.98	141
4	32538	8.99	46
4	32569	9	60
4	32616	9.01	0
4	32657	9.02	43
4	32690	9.03	71
4	32733	9.04	0
4	32782	9.05	0
4	32817	9.06	0
4	32850	9.07	0
4	32885	9.08	0
4	32926	9.09	0
4	32967	9.1	105
4	32996	9.11	0
4	33033	9.12	88
4	33052	9.13	0
4	33081	9.14	98
4	33126	9.15	95
4	33153	9.16	0
4	33190	9.17	134
4	33229	9.18	34
4	33266	9.19	0
4	33309	9.2	78
4	33348	9.21	30
4	33373	9.22	0
4	33398	9.23	104
4	33427	9.24	85
4	33460	9.25	75
4	33495	9.26	24
4	33532	9.27	52
4	33567	9.28	63
4	33598	9.29	0
4	33639	9.3	125
4	33670	9.31	114
4	33707	9.32	134
4	33738	9.33	29
4	33767	9.34	127
4	33814	9.35	0
4	33847	9.36	51
4	33878	9.37	94
4	33909	9.38	30
4	33942	9.39	70
4	33977	9.4	0
4	34010	9.41	0
4	34049	9.42	129
4	34086	9.43	30
4	34131	9.44	1
4	34162	9.45	3
4	34183	9.46	0
4	34210	9.47	0
4	34253	9.48	0
4	34284	9.49	67
4	34321	9.5	73
4	34350	9.51	73
4	34377	9.52	0
4	34424	9.53	0
4	34457	9.54	55
4	34488	9.55	4
4	34521	9.56	0
4	34550	9.57	43
4	34585	9.58	47
4	34616	9.59	0
4	34653	9.6	115
4	34700	9.61	4
4	34733	9.62	239
4	34778	9.63	49
4	34821	9.64	0
4	34870	9.65	150
4	34893	9.66	90
4	34930	9.67	31
4	34959	9.68	86
4	34992	9.69	61
4	35021	9.7	80
4	35066	9.71	0
4	35099	9.72	22
4	35128	9.73	72
4	35165	9.74	182
4	35202	9.75	134
4	35245	9.76	22
4	35274	9.77	11
4	35305	9.78	0
4	35350	9.79	0
4	35395	9.8	46
4	35428	9.81	0
4	35455	9.82	127
4	35482	9.83	35
4	35507	9.84	64
4	35556	9.85	0
4	35597	9.86	0
4	35628	9.87	82
4	35665	9.88	0
4	35708	9.89	0
4	35741	9.9	19
4	35774	9.91	17
4	35811	9.92	5
4	35846	9.93	0
4	35875	9.94	64
4	35908	9.95	0
4	35955	9.96	18
4	35996	9.97	86
4	36043	9.98	26
4	36078	9.99	81
4	36117	10	0
5	52	0.01	0
5	87	0.02	23
5	118	0.03	40
5	157	0.04	63
5	198	0.05	10
5	227	0.06	0
5	270	0.07	0
5	303	0.08	69
5	348	0.09	0
5	385	0.1	0
5	424	0.11	42
5	463	0.12	0
5	500	0.13	79
5	539	0.14	0
5	576	0.15	50
5	607	0.16	19
5	652	0.17	0
5	695	0.18	81
5	732	0.19	438
5	767	0.2	50
5	806	0.21	0
5	837	0.22	337
5	886	0.23	115
5	909	0.24	38
5	944	0.25	55
5	987	0.26	15
5	1016	0.27	0
5	1055	0.28	51
5	1088	0.29	27
5	1129	0.3	150
5	1170	0.31	92
5	1193	0.32	0
5	1226	0.33	46
5	1261	0.34	52
5	1302	0.35	0
5	1339	0.36	7
5	1386	0.37	75
5	1413	0.38	148
5	1454	0.39	41
5	1485	0.4	0
5	1524	0.41	112
5	1565	0.42	0
5	1600	0.43	99
5	1643	0.44	146
5	1680	0.45	88
5	1705	0.46	97
5	1738	0.47	84
5	1773	0.48	48
5	1816	0.49	0
5	1849	0.5	3
5	1876	0.51	3
5	1903	0.52	0
5	1946	0.53	0
5	1985	0.54	0
5	2022	0.55	8
5	2053	0.56	0
5	2088	0.57	0
5	2127	0.58	159
5	2160	0.59	0
5	2199	0.6	0
5	2236	0.61	0
5	2277	0.62	58
5	2306	0.63	60
5	2333	0.64	66
5	2374	0.65	148
5	2409	0.66	0
5	2444	0.67	172
5	2471	0.68	17
5	2496	0.69	34
5	2533	0.7	0
5	2570	0.71	111
5	2603	0.72	0
5	2640	0.73	46
5	2681	0.74	72
5	2720	0.75	0
5	2761	0.76	102
5	2798	0.77	50
5	2829	0.78	0
5	2862	0.79	8
5	2885	0.8	0
5	2916	0.81	29
5	2961	0.82	7
5	3006	0.83	97
5	3059	0.84	143
5	3100	0.85	153
5	3131	0.86	34
5	3156	0.87	0
5	3197	0.88	105
5	3238	0.89	0
5	3271	0.9	0
5	3314	0.91	159
5	3335	0.92	0
5	3362	0.93	0
5	3405	0.94	58
5	3434	0.95	0
5	3465	0.96	0
5	3498	0.97	7
5	3531	0.98	128
5	3572	0.99	0
5	3603	1	58
5	3636	1.01	19
5	3677	1.02	0
5	3714	1.03	0
5	3751	1.04	61
5	3782	1.05	41
5	3815	1.06	0
5	3846	1.07	26
5	3879	1.08	0
5	3918	1.09	126
5	3961	1.1	0
5	3998	1.11	0
[...]
12	34210	9.47	0.011290243166
12	34210	9.47	0.011087675476
12	34210	9.47	0.01233613822
12	34210	9.47	0.014330871938
12	34253	9.48	0.014698648794001
12	34253	9.48	0.015250003616
12	34253	9.48	0.015369669733001
12	34253	9.48	0.016821760904001
12	34253	9.48	0.015028637631001
12	34253	9.48	0.020508153387
12	34253	9.48	0.039507135041001
12	34253	9.48	0.037040848719
12	34284	9.49	0.018437779437001
12	34284	9.49	0.025655628708
12	34284	9.49	0.024597321932001
12	34284	9.49	0.021044197675
12	34284	9.49	0.011766990787001
12	34284	9.49	0.013934877889
12	34284	9.49	0.011181034305
12	34284	9.49	0.010989629480001
12	34284	9.49	0.017248925082001
12	34284	9.49	0.018179455371
12	34284	9.49	0.013130730978
12	34321	9.5	0.015061103448
12	34321	9.5	0.013021289228
12	34321	9.5	0.015283722927
12	34321	9.5	0.014791662836
12	34321	9.5	0.018102128980001
12	34321	9.5	0.013866718678001
12	34321	9.5	0.025527846265
12	34321	9.5	0.023371500984
12	34321	9.5	0.022994150763001
12	34321	9.5	0.021646087971
12	34321	9.5	0.021158115318
12	34321	9.5	0.018966587728
12	34321	9.5	0.018670614014001
12	34321	9.5	0.011778424941999
12	34321	9.5	0.028880589973999
12	34321	9.5	0.023525059640001
12	34321	9.5	0.021998642878
12	34321	9.5	0.011018277972001
12	34350	9.51	0.018119787284
12	34350	9.51	0.011965923038
12	34350	9.51	0.010103116937
12	34350	9.51	0.017321636459
12	34350	9.51	0.015633290912
12	34350	9.51	0.010714205615001
12	34350	9.51	0.018334659492
12	34350	9.51	0.015974315649
12	34350	9.51	0.015657639504999
12	34350	9.51	0.010088761920001
12	34350	9.51	0.017580080318
12	34350	9.51	0.012484922884999
12	34350	9.51	0.010592956168001
12	34377	9.52	0.011489682204999
12	34377	9.52	0.019766360752
12	34377	9.52	0.019738129176
12	34377	9.52	0.012113957699
12	34377	9.52	0.01948258845
12	34377	9.52	0.019087661367999
12	34377	9.52	0.018977584083
12	34377	9.52	0.011020632405
12	34377	9.52	0.013530294641999
12	34424	9.53	0.016455483069999
12	34424	9.53	0.015586280794
12	34424	9.53	0.012189320844
12	34424	9.53	0.018157036798
12	34424	9.53	0.019423801034
12	34424	9.53	0.017826248976
12	34424	9.53	0.017909418181999
12	34457	9.54	0.019134259925
12	34457	9.54	0.015366821419999
12	34457	9.54	0.019915276746
12	34457	9.54	0.016965256115
12	34457	9.54	0.016920269617
12	34457	9.54	0.015745949770999
12	34457	9.54	0.014181862601999
12	34457	9.54	0.01621410255
12	34457	9.54	0.018607231402999
12	34457	9.54	0.012836650278999
12	34457	9.54	0.014114256339999
12	34457	9.54	0.027932065169999
12	34457	9.54	0.017599055399
12	34488	9.55	0.019993846640999
12	34488	9.55	0.018085892155
12	34488	9.55	0.013370970163999
12	34488	9.55	0.012498649461
12	34488	9.55	0.0261000239
12	34488	9.55	0.017872317834
12	34488	9.55	0.016673909490999
12	34488	9.55	0.012115013687
12	34488	9.55	0.029894514909
12	34488	9.55	0.023660275407
12	34488	9.55	0.022703018690999
12	34521	9.56	0.014957092700001
12	34521	9.56	0.010804479680001
12	34521	9.56	0.016173480075
12	34521	9.56	0.012072703215001
12	34521	9.56	0.016970784583
12	34521	9.56	0.01251524954
12	34521	9.56	0.016687496179001
12	34521	9.56	0.012604718088001
12	34521	9.56	0.012111892271001
12	34521	9.56	0.024690864658
12	34521	9.56	0.024184737943001
12	34521	9.56	0.018547343830001
12	34521	9.56	0.032622398805001
12	34521	9.56	0.028421140665001
12	34521	9.56	0.02230231301
12	34550	9.57	0.016094845943
12	34550	9.57	0.013066100043
12	34550	9.57	0.012192960294
12	34550	9.57	0.012447552866
12	34550	9.57	0.013042893683
12	34550	9.57	0.012574465261
12	34550	9.57	0.012051514761
12	34550	9.57	0.012016760673001
12	34550	9.57	0.010094202194001
12	34550	9.57	0.040727103106001
12	34550	9.57	0.014792530187
12	34550	9.57	0.017641204155
12	34585	9.58	0.010301036695001
12	34585	9.58	0.010206428859
12	34585	9.58	0.014313154879
12	34585	9.58	0.019510733189
12	34585	9.58	0.010016295767
12	34585	9.58	0.014402717301
12	34585	9.58	0.01279637279
12	34585	9.58	0.010187119389
12	34585	9.58	0.013226227821001
12	34616	9.59	0.016747520604
12	34616	9.59	0.014751534577
12	34616	9.59	0.014070926996
12	34616	9.59	0.011730053625
12	34616	9.59	0.011521518104001
12	34616	9.59	0.013312935174
12	34616	9.59	0.010106181743
12	34616	9.59	0.018356111876001
12	34616	9.59	0.016566973551001
12	34616	9.59	0.013580357837
12	34616	9.59	0.013076978001999
12	34653	9.6	0.015868803330999
12	34653	9.6	0.016774721267
12	34653	9.6	0.016333357964999
12	34653	9.6	0.026714370734
12	34653	9.6	0.012807229061
12	34653	9.6	0.019232387553
12	34653	9.6	0.015400109655999
12	34653	9.6	0.018669724661001
12	34653	9.6	0.013542012992
12	34653	9.6	0.012329474553999
12	34653	9.6	0.017632688788
12	34700	9.61	0.01551512647
12	34700	9.61	0.010159026605999
12	34700	9.61	0.014591623428
12	34700	9.61	0.011453007098
12	34700	9.61	0.018930964723999
12	34700	9.61	0.013443394378999
12	34700	9.61	0.012110318822
12	34700	9.61	0.0121207591
12	34700	9.61	0.013019877663
12	34700	9.61	0.010536751601
12	34700	9.61	0.016566508653
12	34700	9.61	0.011268687498999
12	34700	9.61	0.017689344906
12	34733	9.62	0.015572851158
12	34733	9.62	0.014082400398999
12	34733	9.62	0.012000832681
12	34733	9.62	0.010874451965
12	34733	9.62	0.017692825346
12	34733	9.62	0.014208462492999
12	34733	9.62	0.01702945918
12	34733	9.62	0.016357018559999
12	34733	9.62	0.015916043267
12	34733	9.62	0.012422311076
12	34733	9.62	0.012113130392999
12	34733	9.62	0.016036519155
12	34733	9.62	0.013387353057999
12	34733	9.62	0.014775135514
12	34778	9.63	0.013455320296
12	34778	9.63	0.011612868622999
12	34778	9.63	0.013624836774
12	34778	9.63	0.01132830181
12	34778	9.63	0.017165981897
12	34778	9.63	0.020443738286
12	34778	9.63	0.011808263828
12	34778	9.63	0.025512311964999
12	34778	9.63	0.026839877435998
12	34778	9.63	0.019906620028999
12	34778	9.63	0.017878345924998
12	34778	9.63	0.014138022439999
12	34778	9.63	0.012366152835
12	34778	9.63	0.029419495847
12	34778	9.63	0.015897769095
12	34821	9.64	0.017708717188
12	34821	9.64	0.015548501871001
12	34821	9.64	0.014233235059001
12	34821	9.64	0.011985664615001
12	34821	9.64	0.018443522943
12	34821	9.64	0.013716761852001
12	34821	9.64	0.018197564896001
12	34870	9.65	0.020362498671
12	34870	9.65	0.013792324700001
12	34870	9.65	0.025174119895
12	34870	9.65	0.019745808761
12	34870	9.65	0.018645461250001
12	34870	9.65	0.013957948936001
12	34870	9.65	0.012732284615
12	34870	9.65	0.011614617164
12	34870	9.65	0.027849183935
12	34870	9.65	0.025986495734001
12	34870	9.65	0.021650884502
12	34870	9.65	0.016000736324001
12	34870	9.65	0.020531670195
12	34870	9.65	0.028819069634
12	34893	9.66	0.025610492843001
12	34893	9.66	0.024956467083001
12	34893	9.66	0.023840469139
12	34893	9.66	0.018806817076999
12	34893	9.66	0.027088637505001
12	34893	9.66	0.01656945383
12	34893	9.66	0.034874255371001
12	34893	9.66	0.021635862007001
12	34893	9.66	0.020801978626
12	34893	9.66	0.018499868065
12	34893	9.66	0.018150389872
12	34893	9.66	0.017849239393
12	34893	9.66	0.010617307894
12	34893	9.66	0.017925915814001
12	34893	9.66	0.02914743228
12	34893	9.66	0.027098275127001
12	34893	9.66	0.017369401687001
12	34893	9.66	0.011510237381
12	34893	9.66	0.011207421396
12	34893	9.66	0.018885294874
12	34893	9.66	0.01540625476
12	34893	9.66	0.014722502636999
12	34893	9.66	0.010742156182999
12	34893	9.66	0.033133483004001
12	34893	9.66	0.031431476366
12	34893	9.66	0.020621503478001
12	34893	9.66	0.018919049799001
12	34930	9.67	0.019037400287001
12	34930	9.67	0.014886697234001
12	34930	9.67	0.012370475695
12	34930	9.67	0.013962848116
12	34930	9.67	0.026416800661
12	34930	9.67	0.021438910844999
12	34930	9.67	0.018714321241999
12	34930	9.67	0.013675567237
12	34930	9.67	0.025890131713
12	34930	9.67	0.024562826477
12	34959	9.68	0.018155781602999
12	34959	9.68	0.011315405305
12	34959	9.68	0.018717525536999
12	34959	9.68	0.012014824755999
12	34959	9.68	0.011474408084
12	34959	9.68	0.019061513879
12	34959	9.68	0.01051979637
12	34959	9.68	0.012570139312
12	34959	9.68	0.011460871060001
12	34959	9.68	0.015709575137
12	34959	9.68	0.011801500995
12	34959	9.68	0.019843475534
12	34959	9.68	0.016584610538001
12	34992	9.69	0.012337971920999
12	34992	9.69	0.015570020865999
12	34992	9.69	0.017818503195
12	34992	9.69	0.01670243319
12	34992	9.69	0.010352895166999
12	34992	9.69	0.019458032464
12	34992	9.69	0.013268363529999
12	34992	9.69	0.012868857802999
12	35021	9.7	0.023037526365
12	35021	9.7	0.015149236067
12	35021	9.7	0.018867131867999
12	35021	9.7	0.013678893325
12	35021	9.7	0.013539499652
12	35021	9.7	0.015350591084999
12	35021	9.7	0.014546537489
12	35066	9.71	0.019585721016
12	35066	9.71	0.016161098968999
12	35066	9.71	0.013563467200999
12	35066	9.71	0.017521422546999
12	35066	9.71	0.013714065602999
12	35066	9.71	0.029432484274999
12	35066	9.71	0.025204243784
12	35099	9.72	0.020390088225001
12	35099	9.72	0.014309353130001
12	35099	9.72	0.012842836633
12	35099	9.72	0.024794947934001
12	35099	9.72	0.014738518815001
12	35099	9.72	0.013668280257001
12	35099	9.72	0.013338393812001
12	35099	9.72	0.012678445634
12	35099	9.72	0.017443342442
12	35099	9.72	0.032109933528
12	35099	9.72	0.031017406930001
12	35099	9.72	0.01857829545
12	35099	9.72	0.015604920067
12	35099	9.72	0.014001029996001
12	35099	9.72	0.019791966469
12	35099	9.72	0.017308480853
12	35099	9.72	0.016449852303001
12	35099	9.72	0.014643377166001
12	35099	9.72	0.022726241259001
12	35099	9.72	0.019680279412
12	35099	9.72	0.039231225727001
12	35099	9.72	0.021920928402
12	35099	9.72	0.013807019495001
12	35128	9.73	0.019378212458001
12	35128	9.73	0.013692634703
12	35128	9.73	0.013100973789001
12	35128	9.73	0.012903919964
12	35128	9.73	0.015319376089
12	35128	9.73	0.012687225586001
12	35128	9.73	0.020056271206
12	35128	9.73	0.014485817748001
12	35128	9.73	0.019676333158001
12	35128	9.73	0.010675186209001
12	35128	9.73	0.018999210890001
12	35128	9.73	0.014084346662001
12	35165	9.74	0.013881896708
12	35165	9.74	0.010919362872
12	35165	9.74	0.019351518194
12	35165	9.74	0.018639896202
12	35165	9.74	0.014815617562
12	35165	9.74	0.011580693124001
12	35165	9.74	0.016662149143
12	35202	9.75	0.016708560867
12	35202	9.75	0.014911718747999
12	35202	9.75	0.018906002467
12	35202	9.75	0.019078039128001
12	35202	9.75	0.017889393593
12	35202	9.75	0.018334964508
12	35202	9.75	0.011101955776001
12	35202	9.75	0.010257467932
12	35202	9.75	0.017545031017001
12	35202	9.75	0.011644717266
12	35202	9.75	0.019371048481
12	35202	9.75	0.017425354701
12	35202	9.75	0.010201514169001
12	35202	9.75	0.026366006968001
12	35245	9.76	0.014131847878
12	35245	9.76	0.013739338737
12	35245	9.76	0.014455312763999
12	35245	9.76	0.017773117879999
12	35245	9.76	0.019337732015
12	35245	9.76	0.017086080921001
12	35245	9.76	0.01980837274
12	35245	9.76	0.014726957182999
12	35245	9.76	0.015246787358
12	35245	9.76	0.011286259811
12	35245	9.76	0.010310645789
12	35245	9.76	0.033919520475999
12	35245	9.76	0.019101030827001
12	35245	9.76	0.014040800114
12	35274	9.77	0.013917606386
12	35274	9.77	0.014185476608001
12	35274	9.77	0.01264428656
12	35274	9.77	0.018515074132999
12	35274	9.77	0.017390840115
12	35274	9.77	0.016825618485999
12	35274	9.77	0.011222524100999
12	35274	9.77	0.010357386965
12	35274	9.77	0.016005824149
12	35274	9.77	0.019402302204
12	35274	9.77	0.017377908396
12	35274	9.77	0.016806430643999
12	35274	9.77	0.013672939801999
12	35274	9.77	0.012877134726001
12	35274	9.77	0.011996467876999
12	35305	9.78	0.014111444096999
12	35305	9.78	0.016780596828999
12	35305	9.78	0.013958762113999
12	35305	9.78	0.018708962474999
12	35305	9.78	0.011522114391999
12	35305	9.78	0.016659647439999
12	35305	9.78	0.022635659346999
12	35305	9.78	0.014472444906
12	35305	9.78	0.013714441454999
12	35305	9.78	0.011131923581999
12	35350	9.79	0.014239864078
12	35350	9.79	0.013976316712998
12	35350	9.79	0.011482452967
12	35350	9.79	0.019229950058
12	35350	9.79	0.010535139443999
12	35350	9.79	0.018499408228999
12	35350	9.79	0.017875633864
12	35350	9.79	0.019182443864999
12	35350	9.79	0.010769282382999
12	35350	9.79	0.010604392222
12	35395	9.8	0.016917030535
12	35395	9.8	0.015389149644999
12	35395	9.8	0.010921235552999
12	35395	9.8	0.019360097577
12	35395	9.8	0.013479423035999
12	35395	9.8	0.010449418418998
12	35395	9.8	0.017963935070998
12	35395	9.8	0.016419357089999
12	35395	9.8	0.011645518270999
12	35428	9.81	0.018339394293001
12	35428	9.81	0.012273075942002
12	35428	9.81	0.015607782610001
12	35428	9.81	0.029611761516001
12	35428	9.81	0.028703291857001
12	35428	9.81	0.020416472823001
12	35428	9.81	0.012940231671001
12	35428	9.81	0.019794420028001
12	35428	9.81	0.025677634504001
12	35428	9.81	0.011996670226001
12	35428	9.81	0.029880218636
12	35455	9.82	0.016654323527
12	35455	9.82	0.013789055672001
12	35455	9.82	0.013512810109001
12	35455	9.82	0.023513739622
12	35455	9.82	0.022314560755001
12	35455	9.82	0.017653054436
12	35455	9.82	0.034760505416001
12	35455	9.82	0.030492693872
12	35455	9.82	0.029296911208
12	35455	9.82	0.028632982783
12	35455	9.82	0.02445189829
12	35455	9.82	0.020894386143
12	35455	9.82	0.013341859767001
12	35455	9.82	0.011565788603001
12	35455	9.82	0.039233713498
12	35455	9.82	0.024295683565001
12	35455	9.82	0.020266834372
12	35455	9.82	0.020142971128001
12	35455	9.82	0.019042068937001
12	35455	9.82	0.018845740127
12	35455	9.82	0.014630611398001
12	35455	9.82	0.013541560129001
12	35455	9.82	0.027921815173
12	35455	9.82	0.02080846694
12	35482	9.83	0.011483607495
12	35482	9.83	0.011256339960001
12	35482	9.83	0.015210818152001
12	35482	9.83	0.018534557902001
12	35482	9.83	0.011809919636001
12	35482	9.83	0.010137150006001
12	35482	9.83	0.01701265452
12	35482	9.83	0.01324779126
12	35482	9.83	0.028513831299
12	35507	9.84	0.016794054218
12	35507	9.84	0.011624893465999
12	35507	9.84	0.011158756308999
12	35507	9.84	0.016686099251
12	35507	9.84	0.010800009224001
12	35556	9.85	0.015276606177
12	35556	9.85	0.018857085329
12	35556	9.85	0.011313008205001
12	35556	9.85	0.018322459043
12	35556	9.85	0.014095953826001
12	35556	9.85	0.015925747264999
12	35556	9.85	0.028272752294001
12	35556	9.85	0.022054016081
12	35556	9.85	0.019933226757001
12	35556	9.85	0.020920303841001
12	35597	9.86	0.015675252434999
12	35597	9.86	0.018710651624
12	35597	9.86	0.014964224714999
12	35597	9.86	0.010330628783001
12	35597	9.86	0.019462264631999
12	35597	9.86	0.017463446482999
12	35597	9.86	0.015514519787999
12	35597	9.86	0.015409907464999
12	35597	9.86	0.015066095161
12	35597	9.86	0.018253675547999
12	35597	9.86	0.015765680502
12	35597	9.86	0.014710324017999
12	35597	9.86	0.014311212681999
12	35597	9.86	0.010440170944999
12	35628	9.87	0.029467849091999
12	35628	9.87	0.020335377824999
12	35628	9.87	0.016443340798
12	35628	9.87	0.026375064215999
12	35628	9.87	0.026024398000999
12	35628	9.87	0.015571702304999
12	35628	9.87	0.010518660548
12	35628	9.87	0.022403763031999
12	35628	9.87	0.018251302890999
12	35628	9.87	0.017162443255
12	35628	9.87	0.013772579577999
12	35628	9.87	0.019690050558999
12	35628	9.87	0.019153953281
12	35628	9.87	0.018714779886999
12	35628	9.87	0.01698059113
12	35628	9.87	0.015690082088
12	35628	9.87	0.018910168886
12	35628	9.87	0.017667527726999
12	35628	9.87	0.012365199869999
12	35665	9.88	0.014773251989999
12	35665	9.88	0.021043539452998
12	35708	9.89	0.017928082960001
12	35708	9.89	0.025816498338001
12	35708	9.89	0.026900551700001
12	35708	9.89	0.026562908397
12	35708	9.89	0.016576218372
12	35708	9.89	0.012638263235001
12	35708	9.89	0.011039745965
12	35708	9.89	0.025263767243001
12	35708	9.89	0.024494464828001
12	35708	9.89	0.015584117321001
12	35708	9.89	0.023840612569002
12	35708	9.89	0.012464137017
12	35708	9.89	0.019966595142002
12	35708	9.89	0.014135062317001
12	35708	9.89	0.013927524100001
12	35708	9.89	0.01195443231
12	35741	9.9	0.018169728150001
12	35741	9.9	0.017955940089001
12	35741	9.9	0.012032809119001
12	35741	9.9	0.010253739723
12	35741	9.9	0.013741283012001
12	35741	9.9	0.019473744885001
12	35741	9.9	0.015126324169001
12	35741	9.9	0.014424620313001
12	35741	9.9	0.030969610246
12	35741	9.9	0.015055719721001
12	35741	9.9	0.020295771189
12	35741	9.9	0.018248725333001
12	35741	9.9	0.037059368476001
12	35741	9.9	0.034818598440001
12	35741	9.9	0.029624778000001
12	35741	9.9	0.02247889775
12	35741	9.9	0.017286837275
12	35774	9.91	0.013436679515001
12	35774	9.91	0.010336708776
12	35774	9.91	0.014820233184
12	35774	9.91	0.013813617862001
12	35774	9.91	0.013230550837001
12	35774	9.91	0.027377978737
12	35774	9.91	0.025819980826
12	35774	9.91	0.022308845744
12	35774	9.91	0.013637338117
12	35774	9.91	0.026273674128001
12	35774	9.91	0.015408978466001
12	35774	9.91	0.016238675436
12	35774	9.91	0.019379688460001
12	35774	9.91	0.014069906496001
12	35774	9.91	0.024142505732
12	35774	9.91	0.011439301112
12	35811	9.92	0.014889868502999
12	35811	9.92	0.011518367435
12	35811	9.92	0.011074580673
12	35811	9.92	0.018896347430001
12	35811	9.92	0.017526262585999
12	35811	9.92	0.018831906663999
12	35811	9.92	0.015969459926
12	35811	9.92	0.015915850839001
12	35811	9.92	0.016799164589001
12	35811	9.92	0.0159092718
12	35846	9.93	0.010959841419
12	35846	9.93	0.014662957523999
12	35846	9.93	0.019468597333001
12	35846	9.93	0.019241621252
12	35846	9.93	0.014069314807999
12	35846	9.93	0.012610729328999
12	35846	9.93	0.010601886889999
12	35846	9.93	0.026515247979001
12	35846	9.93	0.015588915083001
12	35846	9.93	0.014586011025999
12	35846	9.93	0.01931163169
12	35846	9.93	0.016765287959
12	35846	9.93	0.01512239565
12	35846	9.93	0.011469652237
12	35875	9.94	0.017544634207999
12	35875	9.94	0.013592347479999
12	35875	9.94	0.015759724575
12	35875	9.94	0.011959559263
12	35875	9.94	0.0162345648
12	35875	9.94	0.013463276734999
12	35875	9.94	0.01236893404
12	35875	9.94	0.01936564685
12	35875	9.94	0.019347828172
12	35875	9.94	0.014930106378999
12	35875	9.94	0.01222028185
12	35908	9.95	0.017999147561
12	35908	9.95	0.013071312338999
12	35908	9.95	0.010266861979
12	35908	9.95	0.014391865039
12	35908	9.95	0.016290604624999
12	35908	9.95	0.014877807876999
12	35908	9.95	0.018602422609
12	35908	9.95	0.010964661272
12	35908	9.95	0.020561478323
12	35908	9.95	0.011247933812999
12	35955	9.96	0.014524834385
12	35955	9.96	0.012356513144999
12	35955	9.96	0.018097909321
12	35955	9.96	0.0109998981
12	35955	9.96	0.014463164608999
12	35955	9.96	0.014528806830999
12	35955	9.96	0.014903969529
12	35955	9.96	0.012364216703999
12	35996	9.97	0.013504927762002
12	35996	9.97	0.01883643713
12	35996	9.97	0.016714935606
12	35996	9.97	0.010505066143001
12	35996	9.97	0.019231084516001
12	35996	9.97	0.016878028525001
12	35996	9.97	0.011663945694
12	35996	9.97	0.016560578404
12	35996	9.97	0.026745252551001
12	35996	9.97	0.021765003523001
12	35996	9.97	0.020844070828002
12	35996	9.97	0.012271266419001
12	35996	9.97	0.016311520449001
12	35996	9.97	0.010914338293
12	35996	9.97	0.014267589661001
12	36043	9.98	0.016747495396
12	36043	9.98	0.014484624540001
12	36043	9.98	0.017674187328
12	36043	9.98	0.023120384710001
12	36043	9.98	0.017503454613001
12	36043	9.98	0.012606984612001
12	36043	9.98	0.017964118959
12	36043	9.98	0.017556707421001
12	36043	9.98	0.013732896753
12	36043	9.98	0.025451013661
12	36043	9.98	0.017030645690001
12	36043	9.98	0.015446218935001
12	36043	9.98	0.026634159546001
12	36043	9.98	0.02592320598
12	36043	9.98	0.021456978704
12	36043	9.98	0.020751559758001
12	36043	9.98	0.013649259945
12	36078	9.99	0.018289014097
12	36078	9.99	0.016719547547
12	36078	9.99	0.016275779896
12	36078	9.99	0.014289292680001
12	36078	9.99	0.013297469139001
12	36078	9.99	0.025356941793001
12	36078	9.99	0.020978990608
12	36078	9.99	0.024845468822001
12	36078	9.99	0.022616141104001
12	36078	9.99	0.014576433965001
12	36078	9.99	0.010677688293001
12	36078	9.99	0.017964162013
12	36078	9.99	0.016748361151
12	36078	9.99	0.011637592084
12	36078	9.99	0.010397762668001
12	36117	10	0.012325026168
12	36117	10	0.010457825193001
12	36117	10	0.029264014776
12	36117	10	0.028708018728
12	36117	10	0.028553802872
12	36117	10	0.020236755171
12	36117	10	0.019504966303
12	36117	10	0.018293664566
12	36117	10	0.022008828006999
12	36117	10	0.020992667015999
12	36117	10	0.022551887041001
12	36117	10	0.016266101054001
12	36117	10	0.017437751308
12	36117	10	0.010090660193001
12	36117	10	0.010934946238001

