version 2
run General-1-20200118-19:03:57-7432
attr configname General
attr datetime 20200118-19:03:57
attr experiment General
attr inifile omnetpp.ini
attr iterationvars ""
attr iterationvarsf ""
attr measurement ""
attr network CellularNetwork
attr processid 7432
attr repetition 1
attr replication #1
attr resultdir results
attr runnumber 1
attr seedset 1
param **.nUsers 10
param **.antenna.timeslot 0.01s
param **.user[*].lambda 0.008s

vector 0 CellularNetwork.antenna responseTime:vector ETV
attr source responseTime
vector 1 CellularNetwork.antenna throughput:vector ETV
attr source throughput
vector 2 CellularNetwork.antenna NumServedUser:vector ETV
attr source NumServedUser
vector 3 CellularNetwork.antenna tptUser-0:vector ETV
vector 4 CellularNetwork.antenna tptUser-1:vector ETV
vector 5 CellularNetwork.antenna tptUser-2:vector ETV
vector 6 CellularNetwork.antenna tptUser-3:vector ETV
vector 7 CellularNetwork.antenna tptUser-4:vector ETV
vector 8 CellularNetwork.antenna tptUser-5:vector ETV
vector 9 CellularNetwork.antenna tptUser-6:vector ETV
vector 10 CellularNetwork.antenna tptUser-7:vector ETV
vector 11 CellularNetwork.antenna tptUser-8:vector ETV
vector 12 CellularNetwork.antenna tptUser-9:vector ETV
0	12	0.01	0.01
0	12	0.01	0.01
0	12	0.01	0.01
0	12	0.01	0.01
0	12	0.01	0.01
0	12	0.01	0.01
0	12	0.01	0.01
0	12	0.01	0.01
0	12	0.01	0.01
0	24	0.02	0.02
0	35	0.03	0.010155772133
0	91	0.08	0.015521256329
0	126	0.11	0.013961952021
0	126	0.11	0.017953056762
0	149	0.13	0.011277345807
0	175	0.15	0.012582683691
0	187	0.16	0.018933834475
0	187	0.16	0.015754536894
0	187	0.16	0.011744964993
0	198	0.17	0.017989178569
0	266	0.23	0.01683970221
0	266	0.23	0.01079017132
0	323	0.28	0.014105400524
0	334	0.29	0.016671342306
0	392	0.34	0.018516913689
0	392	0.34	0.018645366522
0	403	0.35	0.010419655144
0	426	0.37	0.0133669828
0	450	0.39	0.011560327448
0	450	0.39	0.016238602073
0	530	0.46	0.013734051131
0	530	0.46	0.018756638852
0	541	0.47	0.011268131233
0	586	0.51	0.012581978659
0	609	0.53	0.011263931352
0	709	0.62	0.016430340565
0	743	0.65	0.012898985607
0	767	0.67	0.012632972753
0	780	0.68	0.010837377651
0	791	0.69	0.01453376359
0	791	0.69	0.017027880246
0	848	0.74	0.013029296402
0	860	0.75	0.016482275071
0	871	0.76	0.017665704601
0	938	0.82	0.019472078329
0	1005	0.88	0.014032529212
0	1051	0.92	0.015117768846
0	1062	0.93	0.016226433178
0	1108	0.97	0.013275964627
0	1108	0.97	0.01594089907
0	1186	1.04	0.019690396977
0	1210	1.06	0.017896786387
0	1221	1.07	0.013962457219
0	1277	1.12	0.016328375528
0	1377	1.21	0.018970695987
0	1401	1.23	0.011218701893
0	1412	1.24	0.014937537222
0	1435	1.26	0.018686430511
0	1458	1.28	0.013294714372
0	1494	1.31	0.014968336222
0	1505	1.32	0.015153903814
0	1505	1.32	0.013739214072
0	1529	1.34	0.010631220208
0	1529	1.34	0.01849651321
0	1574	1.38	0.01784806363
0	1641	1.44	0.015632877684
0	1699	1.49	0.011391098126
0	1699	1.49	0.01898662871
0	1711	1.5	0.016900896441
0	1723	1.51	0.019784655808
0	1734	1.52	0.018518308727
0	1768	1.55	0.01198691107
0	1792	1.57	0.016364045352
0	1804	1.58	0.012843722371
0	1816	1.59	0.018865891796
0	1828	1.6	0.014173228158
0	1839	1.61	0.013017534736
0	1885	1.65	0.014689455575
0	1885	1.65	0.016751345244
0	1909	1.67	0.019610896469
0	1922	1.68	0.014648417302
0	1934	1.69	0.017810384705
0	1934	1.69	0.018254913023
0	1945	1.7	0.014110869322
0	1979	1.73	0.0139315453
0	2047	1.79	0.011269124678
0	2058	1.8	0.01896649844
0	2082	1.82	0.010493979884
0	2093	1.83	0.013893575258
0	2150	1.88	0.018196971192
0	2150	1.88	0.010159331554
0	2184	1.91	0.013318277029
0	2207	1.93	0.010410849336
0	2253	1.97	0.013605096815
0	2264	1.98	0.010266606839
0	2287	2	0.016134010994
0	2310	2.02	0.016197066223
0	2344	2.05	0.017671587294
0	2368	2.07	0.016446603551
0	2368	2.07	0.017231714612
0	2458	2.15	0.012537649319
0	2469	2.16	0.017156738169
0	2504	2.19	0.010378834961
0	2515	2.2	0.012520650055
0	2615	2.29	0.015330462212
0	2661	2.33	0.011399737321
0	2661	2.33	0.011884507382
0	2706	2.37	0.010835303137
0	2729	2.39	0.011685535371
0	2752	2.41	0.019385136948
0	2800	2.45	0.015850829048
0	2800	2.45	0.018473425507
0	2800	2.45	0.018116450937
0	2812	2.46	0.015937555973
0	2823	2.47	0.011650860772
0	2880	2.52	0.016389196997
0	2893	2.53	0.017698398551
0	2904	2.54	0.013790367964
0	2904	2.54	0.019503015163
0	2949	2.58	0.018023237378
0	2973	2.6	0.011205462347
0	2973	2.6	0.014398475879
0	3096	2.71	0.011932466745
0	3107	2.72	0.013017404603
0	3164	2.77	0.013152074654
0	3176	2.78	0.012703804989
0	3187	2.79	0.019504052026
0	3222	2.82	0.010971891257
0	3222	2.82	0.01100169015
0	3245	2.84	0.015976480436
0	3290	2.88	0.017153481845
0	3314	2.9	0.015877271338
0	3325	2.91	0.014432181992
0	3359	2.94	0.010144270188
0	3404	2.98	0.011381661713
0	3427	3	0.014787021178
0	3474	3.04	0.012413785257
0	3474	3.04	0.012196626018
0	3485	3.05	0.016485209526
0	3530	3.09	0.019174759606
0	3597	3.15	0.016278531524
0	3664	3.21	0.016667006637
0	3775	3.31	0.01305731147
0	3821	3.35	0.017922440987
0	3832	3.36	0.018211970643
0	3856	3.38	0.016509834647
0	3867	3.39	0.016396481578
0	3890	3.41	0.018630127075
0	3913	3.43	0.013509697813
0	3936	3.45	0.015904448442
0	3981	3.49	0.01328560253
0	4004	3.51	0.010784880509
0	4039	3.54	0.01780265728
0	4039	3.54	0.010958863618
0	4073	3.57	0.011003395184
0	4118	3.61	0.015815093451
0	4152	3.64	0.012081285029
0	4176	3.66	0.010751296733
0	4176	3.66	0.01698759097
0	4199	3.68	0.015781338512
0	4233	3.71	0.016056846595
0	4270	3.74	0.014033077699
0	4281	3.75	0.016537402451
0	4281	3.75	0.010825793801
0	4281	3.75	0.011432908956
0	4306	3.77	0.014958796235
0	4317	3.78	0.011564698371
0	4317	3.78	0.010454340016
0	4374	3.83	0.016846694607
0	4374	3.83	0.014177326452
0	4397	3.85	0.014922457104
0	4431	3.88	0.012543518448
0	4455	3.9	0.012219333056
0	4466	3.91	0.013408511252
0	4511	3.95	0.011528119554
0	4545	3.98	0.01042622502
0	4601	4.03	0.010182194295
0	4636	4.06	0.017880825884999
0	4636	4.06	0.010550574846
0	4692	4.11	0.012976049086
0	4749	4.16	0.018761648161
0	4749	4.16	0.01817771715
0	4828	4.23	0.018958612172
0	4828	4.23	0.010124433973999
0	4897	4.29	0.014019809526
0	4909	4.3	0.012520357368
0	4909	4.3	0.013643468641
0	4920	4.31	0.012293246024
0	4943	4.33	0.015017984297
0	4966	4.35	0.019630529569
0	5035	4.41	0.014082505783001
0	5035	4.41	0.013283866853
0	5047	4.42	0.017103537039
0	5058	4.43	0.010392375851
0	5092	4.46	0.014954604781
0	5137	4.5	0.018328422754
0	5206	4.56	0.013307785236
0	5206	4.56	0.01580264126
0	5218	4.57	0.012628936538
0	5229	4.58	0.014450232507
0	5252	4.6	0.016010454068
0	5276	4.62	0.018068756934
0	5287	4.63	0.010956142136
0	5409	4.74	0.01052604229
0	5455	4.78	0.019163435396
0	5466	4.79	0.016765543605
0	5501	4.82	0.011312894991001
0	5501	4.82	0.018760426232
0	5525	4.84	0.018494426744
0	5525	4.84	0.013845227798
0	5592	4.9	0.010360883954999
0	5627	4.93	0.019281464661
0	5640	4.94	0.018665994669
0	5654	4.95	0.01700801789
0	5654	4.95	0.016040457384
0	5665	4.96	0.017623680875
0	5665	4.96	0.01583145285
0	5665	4.96	0.019235328537
0	5721	5.01	0.016698210898
0	5788	5.07	0.019512705596
0	5867	5.14	0.010405689208
0	5867	5.14	0.019156600305
0	5915	5.18	0.019183988851
0	5926	5.19	0.015116966539
0	5926	5.19	0.014909222227
0	5926	5.19	0.010229544595
0	5971	5.23	0.014724293775999
0	5994	5.25	0.015261073657
0	6040	5.29	0.013653880906
0	6052	5.3	0.01253043163
0	6063	5.31	0.018724206409
0	6131	5.37	0.018255535816
0	6143	5.38	0.016029787315
0	6154	5.39	0.019992027652
0	6178	5.41	0.011745932152
0	6189	5.42	0.016807149098
0	6234	5.46	0.01074709359
0	6257	5.48	0.016264874051
0	6302	5.52	0.011622387596
0	6325	5.54	0.012592376558
0	6348	5.56	0.016094943358
0	6405	5.61	0.010671484141
0	6417	5.62	0.012668919013
0	6429	5.63	0.018196047148
0	6440	5.64	0.019427087038999
0	6486	5.68	0.012988107236
0	6497	5.69	0.018152475836
0	6543	5.73	0.011662737816
0	6543	5.73	0.012929093224
0	6577	5.76	0.01269582648
0	6624	5.8	0.011734453599
0	6635	5.81	0.013170893258
0	6635	5.81	0.014206779702
0	6670	5.84	0.018833207401
0	6681	5.85	0.018744100919999
0	6704	5.87	0.011905580171001
0	6772	5.93	0.015290341901999
0	6783	5.94	0.012619707776
0	6850	6	0.013004464348001
0	6874	6.02	0.017716900308
0	6874	6.02	0.015104782767
0	6897	6.04	0.018904409927
0	6922	6.06	0.017060098871999
0	6934	6.07	0.017073350538
0	6934	6.07	0.018793004756001
0	6946	6.08	0.012864084996
0	6957	6.09	0.011414373962
0	6980	6.11	0.015480462619
0	7025	6.15	0.016398272262999
0	7104	6.22	0.01158834105
0	7104	6.22	0.01547768924
0	7127	6.24	0.010166675599001
0	7183	6.29	0.010759793983
0	7228	6.33	0.018705599482
0	7262	6.36	0.017216585593999
0	7307	6.4	0.011153136945
0	7363	6.45	0.016102862641
0	7464	6.54	0.014031571484
0	7475	6.55	0.018776279402
0	7509	6.58	0.013774502968
0	7610	6.67	0.017347626892
0	7610	6.67	0.019803636986
0	7666	6.72	0.012719833755
0	7713	6.76	0.014119932062
0	7725	6.77	0.012180915876
0	7725	6.77	0.017723763503
0	7736	6.78	0.018679936125
0	7781	6.82	0.013566565644
0	7817	6.85	0.011669756133
0	7828	6.86	0.016020775689999
0	7828	6.86	0.010335482083
0	7851	6.88	0.018885679224
0	7909	6.93	0.016794313821
0	7909	6.93	0.014731702968
0	7920	6.94	0.011304327326999
0	7943	6.96	0.016425457902
0	8045	7.05	0.018097486796
0	8059	7.06	0.019100250869999
0	8059	7.06	0.011663401197
0	8070	7.07	0.018865309391001
0	8070	7.07	0.012999436487
0	8070	7.07	0.019183148874
0	8105	7.1	0.011184711811
0	8116	7.11	0.017616331707
0	8194	7.18	0.01037428252
0	8228	7.21	0.018384674473
0	8251	7.23	0.01238508184
0	8274	7.25	0.010660687817
0	8297	7.27	0.019272890905
0	8322	7.29	0.01522200412
0	8336	7.3	0.010683877809
0	8336	7.3	0.013140561702
0	8347	7.31	0.016019214223999
0	8347	7.31	0.017718665677
0	8347	7.31	0.017827866549
0	8393	7.35	0.014637883537
0	8405	7.36	0.014698539581
0	8416	7.37	0.013144351389
0	8451	7.4	0.018830015832
0	8451	7.4	0.012514232636
0	8521	7.46	0.019684846295
0	8521	7.46	0.017025777767
0	8521	7.46	0.011541130432001
0	8534	7.47	0.019692973341
0	8545	7.48	0.018421331299
0	8545	7.48	0.012119440114
0	8601	7.53	0.014717361041001
0	8624	7.55	0.012553666463
0	8648	7.57	0.015788422371
0	8659	7.58	0.014163258043
0	8682	7.6	0.012078730018
0	8771	7.68	0.011316526967
0	8893	7.79	0.013389325449
0	9026	7.91	0.017608484076001
0	9061	7.94	0.016796725981
0	9073	7.95	0.016384681269001
0	9085	7.96	0.015654720573
0	9096	7.97	0.019606386561
0	9153	8.02	0.019895419147
0	9164	8.03	0.018233989784999
0	9231	8.09	0.010670825475
0	9254	8.11	0.019228244663999
0	9277	8.13	0.015419420660999
0	9301	8.15	0.010986232856
0	9312	8.16	0.013281346153001
0	9335	8.18	0.019508371989
0	9471	8.3	0.011628393153002
0	9471	8.3	0.011356268337002
0	9482	8.31	0.018481703865001
0	9482	8.31	0.013900351972001
0	9538	8.36	0.011205597906999
0	9561	8.38	0.012702534872
0	9595	8.41	0.016084160530001
0	9641	8.45	0.011637500242999
0	9653	8.46	0.016019239574
0	9664	8.47	0.013793067781
0	9698	8.5	0.01123984226
0	9721	8.52	0.0142073186
0	9756	8.55	0.011198602928001
0	9767	8.56	0.016918923075
0	9803	8.59	0.010655268349
0	9803	8.59	0.019554242762
0	9803	8.59	0.019368307967
0	9826	8.61	0.011604135229
0	9915	8.69	0.015324101231
0	9939	8.71	0.017182336439999
0	9950	8.72	0.016037062091002
0	9973	8.74	0.017177568880001
0	9998	8.76	0.012388466259999
0	10010	8.77	0.019305242073999
0	10022	8.78	0.026093127024
0	10022	8.78	0.018129204835999
0	10033	8.79	0.013380672596
0	10067	8.82	0.018932867483
0	10101	8.85	0.016581111604999
0	10136	8.88	0.016656342704
0	10136	8.88	0.014122043641999
0	10161	8.9	0.013302709982
0	10172	8.91	0.014525653398
0	10172	8.91	0.018823135865
0	10218	8.95	0.014184034825
0	10229	8.96	0.015357164204
0	10252	8.98	0.015926365522001
0	10275	9	0.015161863135001
0	10299	9.02	0.011340070054001
0	10310	9.03	0.010938640254
0	10355	9.07	0.012959132209
0	10379	9.09	0.015130132747
0	10379	9.09	0.010621419165
0	10424	9.13	0.011757602314999
0	10458	9.16	0.017362949556
0	10481	9.18	0.019770898865
0	10526	9.22	0.013009126224
0	10648	9.33	0.013171073100001
0	10674	9.35	0.019884273843999
0	10674	9.35	0.015000555902001
0	10674	9.35	0.018621893099001
0	10685	9.36	0.028157801506
0	10730	9.4	0.016309155952001
0	10809	9.47	0.019360709804001
0	10809	9.47	0.012331035554
0	10854	9.51	0.016691414336
0	10956	9.6	0.01015546533
0	10968	9.61	0.015610590044
0	10968	9.61	0.012874928638
0	10980	9.62	0.01424331386
0	10991	9.63	0.019958407348
0	11026	9.66	0.016082576832
0	11026	9.66	0.014533606619
0	11061	9.69	0.014914024185
0	11072	9.7	0.013635055096
0	11173	9.79	0.018863162058999
0	11173	9.79	0.016368613232
0	11208	9.82	0.013796213964001
0	11220	9.83	0.011888078650999
0	11231	9.84	0.016036956707
0	11254	9.86	0.013306799503999
0	11289	9.89	0.013226247392002
0	11289	9.89	0.012184036846001
0	11335	9.93	0.012455525191999
0	11347	9.94	0.019538187885999
0	11360	9.95	0.011424803868
0	11372	9.96	0.013707616391999
0	11372	9.96	0.012085472106
0	11383	9.97	0.012791524808001
1	12	0.01	299
1	24	0.02	63
1	35	0.03	28
1	46	0.04	0
1	57	0.05	0
1	68	0.06	0
1	80	0.07	0
1	91	0.08	45
1	102	0.09	0
1	115	0.1	0
1	126	0.11	114
1	138	0.12	0
1	149	0.13	31
1	161	0.14	0
1	175	0.15	19
1	187	0.16	115
1	198	0.17	2
1	209	0.18	0
1	220	0.19	0
1	231	0.2	0
1	242	0.21	0
1	255	0.22	0
1	266	0.23	23
1	277	0.24	0
1	288	0.25	0
1	299	0.26	0
1	311	0.27	0
1	323	0.28	59
1	334	0.29	1
1	345	0.3	0
1	356	0.31	0
1	367	0.32	0
1	380	0.33	0
1	392	0.34	42
1	403	0.35	52
1	415	0.36	0
1	426	0.37	28
1	439	0.38	0
1	450	0.39	35
1	461	0.4	0
1	472	0.41	0
1	483	0.42	0
1	494	0.43	0
1	505	0.44	0
1	518	0.45	0
1	530	0.46	108
1	541	0.47	20
1	552	0.48	0
1	563	0.49	0
1	575	0.5	0
1	586	0.51	19
1	598	0.52	0
1	609	0.53	8
1	620	0.54	0
1	631	0.55	0
1	642	0.56	0
1	653	0.57	0
1	664	0.58	0
1	675	0.59	0
1	686	0.6	0
1	698	0.61	0
1	709	0.62	31
1	720	0.63	0
1	732	0.64	0
1	743	0.65	63
1	755	0.66	0
1	767	0.67	12
1	780	0.68	68
1	791	0.69	122
1	802	0.7	0
1	813	0.71	0
1	824	0.72	0
1	836	0.73	0
1	848	0.74	4
1	860	0.75	28
1	871	0.76	30
1	882	0.77	0
1	893	0.78	0
1	904	0.79	0
1	915	0.8	0
1	927	0.81	0
1	938	0.82	34
1	949	0.83	0
1	960	0.84	0
1	971	0.85	0
1	982	0.86	0
1	994	0.87	0
1	1005	0.88	8
1	1016	0.89	0
1	1027	0.9	0
1	1039	0.91	0
1	1051	0.92	17
1	1062	0.93	15
1	1073	0.94	0
1	1084	0.95	0
1	1097	0.96	0
1	1108	0.97	42
1	1119	0.98	0
1	1130	0.99	0
1	1141	1	0
1	1152	1.01	0
1	1163	1.02	0
1	1175	1.03	0
1	1186	1.04	39
1	1198	1.05	0
1	1210	1.06	48
1	1221	1.07	17
1	1232	1.08	0
1	1243	1.09	0
1	1254	1.1	0
1	1266	1.11	0
1	1277	1.12	6
1	1288	1.13	0
1	1299	1.14	0
1	1310	1.15	0
1	1321	1.16	0
1	1332	1.17	0
1	1343	1.18	0
1	1354	1.19	0
1	1366	1.2	0
1	1377	1.21	35
1	1389	1.22	0
1	1401	1.23	46
1	1412	1.24	60
1	1424	1.25	0
1	1435	1.26	25
1	1447	1.27	0
1	1458	1.28	14
1	1469	1.29	0
1	1481	1.3	0
1	1494	1.31	32
1	1505	1.32	78
1	1518	1.33	0
1	1529	1.34	21
1	1540	1.35	0
1	1551	1.36	0
1	1563	1.37	0
1	1574	1.38	48
1	1585	1.39	0
1	1596	1.4	0
1	1607	1.41	0
1	1618	1.42	0
1	1630	1.43	0
1	1641	1.44	1
1	1652	1.45	0
1	1663	1.46	0
1	1674	1.47	0
1	1687	1.48	0
1	1699	1.49	25
1	1711	1.5	65
1	1723	1.51	9
1	1734	1.52	45
1	1745	1.53	0
1	1757	1.54	0
1	1768	1.55	38
1	1780	1.56	0
1	1792	1.57	6
1	1804	1.58	23
1	1816	1.59	53
1	1828	1.6	70
1	1839	1.61	61
1	1850	1.62	0
1	1861	1.63	0
1	1874	1.64	0
1	1885	1.65	101
1	1897	1.66	0
1	1909	1.67	36
1	1922	1.68	21
1	1934	1.69	123
1	1945	1.7	33
1	1956	1.71	0
1	1968	1.72	0
1	1979	1.73	14
1	1990	1.74	0
1	2001	1.75	0
1	2012	1.76	0
1	2023	1.77	0
1	2035	1.78	0
1	2047	1.79	19
1	2058	1.8	53
1	2070	1.81	0
1	2082	1.82	23
1	2093	1.83	59
1	2104	1.84	0
1	2115	1.85	0
1	2126	1.86	0
1	2139	1.87	0
1	2150	1.88	55
1	2161	1.89	0
1	2173	1.9	0
1	2184	1.91	37
1	2196	1.92	0
1	2207	1.93	42
1	2218	1.94	0
1	2229	1.95	0
1	2241	1.96	0
1	2253	1.97	21
1	2264	1.98	33
1	2276	1.99	0
1	2287	2	11
1	2299	2.01	0
1	2310	2.02	32
1	2321	2.03	0
1	2333	2.04	0
1	2344	2.05	16
1	2357	2.06	0
1	2368	2.07	94
1	2379	2.08	0
1	2390	2.09	0
1	2401	2.1	0
1	2412	2.11	0
1	2423	2.12	0
1	2434	2.13	0
1	2446	2.14	0
1	2458	2.15	10
1	2469	2.16	64
1	2480	2.17	0
1	2492	2.18	0
1	2504	2.19	15
1	2515	2.2	67
1	2526	2.21	0
1	2537	2.22	0
1	2548	2.23	0
1	2559	2.24	0
1	2570	2.25	0
1	2581	2.26	0
1	2592	2.27	0
1	2604	2.28	0
1	2615	2.29	58
1	2626	2.3	0
1	2637	2.31	0
1	2650	2.32	0
1	2661	2.33	85
1	2672	2.34	0
1	2683	2.35	0
1	2695	2.36	0
1	2706	2.37	9
1	2718	2.38	0
1	2729	2.39	9
1	2741	2.4	0
1	2752	2.41	72
1	2763	2.42	0
1	2774	2.43	0
1	2788	2.44	0
1	2800	2.45	94
1	2812	2.46	73
1	2823	2.47	75
1	2834	2.48	0
1	2845	2.49	0
1	2856	2.5	0
1	2868	2.51	0
1	2880	2.52	73
1	2893	2.53	33
1	2904	2.54	86
1	2915	2.55	0
1	2926	2.56	0
1	2938	2.57	0
1	2949	2.58	36
1	2962	2.59	0
1	2973	2.6	107
1	2984	2.61	0
1	2995	2.62	0
1	3006	2.63	0
1	3017	2.64	0
1	3028	2.65	0
1	3039	2.66	0
1	3050	2.67	0
1	3061	2.68	0
1	3072	2.69	0
1	3084	2.7	0
1	3096	2.71	1
1	3107	2.72	3
1	3118	2.73	0
1	3129	2.74	0
1	3140	2.75	0
1	3152	2.76	0
1	3164	2.77	3
1	3176	2.78	66
1	3187	2.79	46
1	3198	2.8	0
1	3211	2.81	0
1	3222	2.82	26
1	3234	2.83	0
1	3245	2.84	51
1	3256	2.85	0
1	3267	2.86	0
1	3279	2.87	0
1	3290	2.88	20
1	3302	2.89	0
1	3314	2.9	55
1	3325	2.91	25
1	3336	2.92	0
1	3348	2.93	0
1	3359	2.94	65
1	3370	2.95	0
1	3381	2.96	0
1	3393	2.97	0
1	3404	2.98	74
1	3416	2.99	0
1	3427	3	2
1	3438	3.01	0
1	3449	3.02	0
1	3462	3.03	0
1	3474	3.04	75
1	3485	3.05	24
1	3496	3.06	0
1	3507	3.07	0
1	3519	3.08	0
1	3530	3.09	40
1	3541	3.1	0
1	3552	3.11	0
1	3563	3.12	0
1	3574	3.13	0
1	3586	3.14	0
1	3597	3.15	69
1	3608	3.16	0
1	3619	3.17	0
1	3630	3.18	0
1	3641	3.19	0
1	3653	3.2	0
1	3664	3.21	37
1	3675	3.22	0
1	3686	3.23	0
1	3697	3.24	0
1	3708	3.25	0
1	3719	3.26	0
1	3730	3.27	0
1	3741	3.28	0
1	3752	3.29	0
1	3764	3.3	0
1	3775	3.31	70
1	3786	3.32	0
1	3797	3.33	0
1	3809	3.34	0
1	3821	3.35	37
1	3832	3.36	19
1	3844	3.37	0
1	3856	3.38	35
1	3867	3.39	31
1	3879	3.4	0
1	3890	3.41	36
1	3902	3.42	0
1	3913	3.43	30
1	3925	3.44	0
1	3936	3.45	2
1	3947	3.46	0
1	3958	3.47	0
1	3970	3.48	0
1	3981	3.49	21
1	3993	3.5	0
1	4004	3.51	1
1	4015	3.52	0
1	4028	3.53	0
1	4039	3.54	87
1	4050	3.55	0
1	4062	3.56	0
1	4073	3.57	31
1	4084	3.58	0
1	4095	3.59	0
1	4107	3.6	0
1	4118	3.61	41
1	4129	3.62	0
1	4141	3.63	0
1	4152	3.64	75
1	4165	3.65	0
1	4176	3.66	124
1	4188	3.67	0
1	4199	3.68	20
1	4210	3.69	0
1	4222	3.7	0
1	4233	3.71	47
1	4244	3.72	0
1	4256	3.73	0
1	4270	3.74	27
1	4281	3.75	141
1	4293	3.76	0
1	4306	3.77	29
1	4317	3.78	24
1	4328	3.79	0
1	4339	3.8	0
1	4350	3.81	0
1	4363	3.82	0
1	4374	3.83	97
1	4386	3.84	0
1	4397	3.85	46
1	4408	3.86	0
1	4420	3.87	0
1	4431	3.88	6
1	4443	3.89	0
1	4455	3.9	27
1	4466	3.91	42
1	4477	3.92	0
1	4488	3.93	0
1	4500	3.94	0
1	4511	3.95	29
1	4522	3.96	0
1	4534	3.97	0
1	4545	3.98	36
1	4556	3.99	0
1	4567	4	0
1	4578	4.01	0
1	4590	4.02	0
1	4601	4.03	56
1	4612	4.04	0
1	4625	4.05	0
1	4636	4.06	28
1	4647	4.07	0
1	4658	4.08	0
1	4669	4.09	0
1	4681	4.1	0
1	4692	4.11	4
1	4703	4.12	0
1	4714	4.13	0
1	4725	4.14	0
1	4738	4.15	0
1	4749	4.16	58
1	4760	4.17	0
1	4771	4.18	0
1	4782	4.19	0
1	4793	4.2	0
1	4804	4.21	0
1	4817	4.22	0
1	4828	4.23	58
1	4839	4.24	0
1	4850	4.25	0
1	4861	4.26	0
1	4872	4.27	0
1	4884	4.28	0
1	4897	4.29	72
1	4909	4.3	101
1	4920	4.31	38
1	4932	4.32	0
1	4943	4.33	2
1	4955	4.34	0
1	4966	4.35	31
1	4977	4.36	0
1	4988	4.37	0
1	4999	4.38	0
1	5010	4.39	0
1	5023	4.4	0
1	5035	4.41	39
1	5047	4.42	8
1	5058	4.43	36
1	5069	4.44	0
1	5081	4.45	0
1	5092	4.46	10
1	5103	4.47	0
1	5114	4.48	0
1	5126	4.49	0
1	5137	4.5	8
1	5148	4.51	0
1	5159	4.52	0
1	5170	4.53	0
1	5181	4.54	0
1	5194	4.55	0
1	5206	4.56	87
1	5218	4.57	15
1	5229	4.58	5
1	5241	4.59	0
1	5252	4.6	75
1	5264	4.61	0
1	5276	4.62	69
1	5287	4.63	68
1	5298	4.64	0
1	5309	4.65	0
1	5320	4.66	0
1	5331	4.67	0
1	5342	4.68	0
1	5353	4.69	0
1	5364	4.7	0
1	5375	4.71	0
1	5386	4.72	0
1	5398	4.73	0
1	5409	4.74	18
1	5420	4.75	0
1	5431	4.76	0
1	5443	4.77	0
1	5455	4.78	12
1	5466	4.79	31
1	5477	4.8	0
1	5490	4.81	0
1	5501	4.82	36
1	5514	4.83	0
1	5525	4.84	114
1	5536	4.85	0
1	5547	4.86	0
1	5558	4.87	0
1	5569	4.88	0
1	5581	4.89	0
1	5592	4.9	53
1	5603	4.91	0
1	5615	4.92	0
1	5627	4.93	75
1	5640	4.94	26
1	5654	4.95	42
1	5665	4.96	123
1	5676	4.97	0
1	5687	4.98	0
1	5698	4.99	0
1	5710	5	0
1	5721	5.01	59
1	5732	5.02	0
1	5743	5.03	0
1	5754	5.04	0
1	5765	5.05	0
1	5777	5.06	0
1	5788	5.07	45
1	5799	5.08	0
1	5810	5.09	0
1	5821	5.1	0
1	5832	5.11	0
1	5843	5.12	0
1	5856	5.13	0
1	5867	5.14	32
1	5878	5.15	0
1	5889	5.16	0
1	5901	5.17	0
1	5915	5.18	58
1	5926	5.19	113
1	5937	5.2	0
1	5948	5.21	0
1	5960	5.22	0
1	5971	5.23	52
1	5983	5.24	0
1	5994	5.25	17
1	6005	5.26	0
1	6016	5.27	0
1	6028	5.28	0
1	6040	5.29	27
1	6052	5.3	31
1	6063	5.31	15
1	6074	5.32	0
1	6085	5.33	0
1	6096	5.34	0
1	6107	5.35	0
1	6119	5.36	0
1	6131	5.37	9
1	6143	5.38	58
1	6154	5.39	41
1	6166	5.4	0
1	6178	5.41	60
1	6189	5.42	59
1	6200	5.43	0
1	6211	5.44	0
1	6223	5.45	0
1	6234	5.46	11
1	6246	5.47	0
1	6257	5.48	7
1	6268	5.49	0
1	6279	5.5	0
1	6291	5.51	0
1	6302	5.52	59
1	6314	5.53	0
1	6325	5.54	74
1	6337	5.55	0
1	6348	5.56	55
1	6359	5.57	0
1	6370	5.58	0
1	6381	5.59	0
1	6393	5.6	0
1	6405	5.61	34
1	6417	5.62	25
1	6429	5.63	19
1	6440	5.64	21
1	6451	5.65	0
1	6462	5.66	0
1	6474	5.67	0
1	6486	5.68	47
1	6497	5.69	6
1	6508	5.7	0
1	6519	5.71	0
1	6532	5.72	0
1	6543	5.73	71
1	6554	5.74	0
1	6566	5.75	0
1	6577	5.76	39
1	6588	5.77	0
1	6599	5.78	0
1	6611	5.79	0
1	6624	5.8	13
1	6635	5.81	8
1	6646	5.82	0
1	6658	5.83	0
1	6670	5.84	18
1	6681	5.85	12
1	6693	5.86	0
1	6704	5.87	57
1	6715	5.88	0
1	6726	5.89	0
1	6737	5.9	0
1	6748	5.91	0
1	6760	5.92	0
1	6772	5.93	27
1	6783	5.94	43
1	6794	5.95	0
1	6805	5.96	0
1	6816	5.97	0
1	6827	5.98	0
1	6839	5.99	0
1	6850	6	58
1	6863	6.01	0
1	6874	6.02	58
1	6886	6.03	0
1	6897	6.04	11
1	6909	6.05	0
1	6922	6.06	40
1	6934	6.07	49
1	6946	6.08	69
1	6957	6.09	56
1	6969	6.1	0
1	6980	6.11	32
1	6991	6.12	0
1	7002	6.13	0
1	7014	6.14	0
1	7025	6.15	27
1	7036	6.16	0
1	7047	6.17	0
1	7058	6.18	0
1	7069	6.19	0
1	7080	6.2	0
1	7093	6.21	0
1	7104	6.22	69
1	7116	6.23	0
1	7127	6.24	11
1	7138	6.25	0
1	7149	6.26	0
1	7160	6.27	0
1	7172	6.28	0
1	7183	6.29	34
1	7194	6.3	0
1	7205	6.31	0
1	7217	6.32	0
1	7228	6.33	65
1	7239	6.34	0
1	7251	6.35	0
1	7262	6.36	37
1	7273	6.37	0
1	7284	6.38	0
1	7296	6.39	0
1	7307	6.4	61
1	7318	6.41	0
1	7329	6.42	0
1	7340	6.43	0
1	7352	6.44	0
1	7363	6.45	1
1	7374	6.46	0
1	7385	6.47	0
1	7396	6.48	0
1	7407	6.49	0
1	7418	6.5	0
1	7429	6.51	0
1	7440	6.52	0
1	7452	6.53	0
1	7464	6.54	73
1	7475	6.55	25
1	7486	6.56	0
1	7498	6.57	0
1	7509	6.58	27
1	7520	6.59	0
1	7531	6.6	0
1	7542	6.61	0
1	7553	6.62	0
1	7564	6.63	0
1	7575	6.64	0
1	7586	6.65	0
1	7599	6.66	0
1	7610	6.67	36
1	7621	6.68	0
1	7632	6.69	0
1	7643	6.7	0
1	7655	6.71	0
1	7666	6.72	64
1	7677	6.73	0
1	7688	6.74	0
1	7700	6.75	0
1	7713	6.76	19
1	7725	6.77	63
1	7736	6.78	46
1	7747	6.79	0
1	7758	6.8	0
1	7770	6.81	0
1	7781	6.82	47
1	7792	6.83	0
1	7804	6.84	0
1	7817	6.85	59
1	7828	6.86	66
1	7840	6.87	0
1	7851	6.88	23
1	7862	6.89	0
1	7873	6.9	0
1	7884	6.91	0
1	7897	6.92	0
1	7909	6.93	95
1	7920	6.94	6
1	7932	6.95	0
1	7943	6.96	50
1	7954	6.97	0
1	7965	6.98	0
1	7976	6.99	0
1	7987	7	0
1	7998	7.01	0
1	8009	7.02	0
1	8020	7.03	0
1	8032	7.04	0
1	8045	7.05	59
1	8059	7.06	65
1	8070	7.07	133
1	8081	7.08	0
1	8093	7.09	0
1	8105	7.1	19
1	8116	7.11	37
1	8127	7.12	0
1	8138	7.13	0
1	8149	7.14	0
1	8160	7.15	0
1	8171	7.16	0
1	8183	7.17	0
1	8194	7.18	37
1	8205	7.19	0
1	8217	7.2	0
1	8228	7.21	68
1	8240	7.22	0
1	8251	7.23	10
1	8263	7.24	0
1	8274	7.25	48
1	8286	7.26	0
1	8297	7.27	1
1	8309	7.28	0
1	8322	7.29	73
1	8336	7.3	91
1	8347	7.31	104
1	8358	7.32	0
1	8369	7.33	0
1	8381	7.34	0
1	8393	7.35	14
1	8405	7.36	74
1	8416	7.37	70
1	8427	7.38	0
1	8440	7.39	0
1	8451	7.4	99
1	8462	7.41	0
1	8473	7.42	0
1	8484	7.43	0
1	8495	7.44	0
1	8509	7.45	0
1	8521	7.46	121
1	8534	7.47	59
1	8545	7.48	121
1	8556	7.49	0
1	8567	7.5	0
1	8578	7.51	0
1	8590	7.52	0
1	8601	7.53	12
1	8613	7.54	0
1	8624	7.55	66
1	8636	7.56	0
1	8648	7.57	22
1	8659	7.58	9
1	8671	7.59	0
1	8682	7.6	32
1	8693	7.61	0
1	8704	7.62	0
1	8715	7.63	0
1	8726	7.64	0
1	8737	7.65	0
1	8748	7.66	0
1	8760	7.67	0
1	8771	7.68	48
1	8782	7.69	0
1	8793	7.7	0
1	8804	7.71	0
1	8815	7.72	0
1	8826	7.73	0
1	8837	7.74	0
1	8848	7.75	0
1	8859	7.76	0
1	8870	7.77	0
1	8882	7.78	0
1	8893	7.79	67
1	8904	7.8	0
1	8915	7.81	0
1	8926	7.82	0
1	8937	7.83	0
1	8948	7.84	0
1	8959	7.85	0
1	8970	7.86	0
1	8981	7.87	0
1	8992	7.88	0
1	9003	7.89	0
1	9015	7.9	0
1	9026	7.91	21
1	9037	7.92	0
1	9049	7.93	0
1	9061	7.94	60
1	9073	7.95	58
1	9085	7.96	34
1	9096	7.97	54
1	9107	7.98	0
1	9118	7.99	0
1	9129	8	0
1	9141	8.01	0
1	9153	8.02	2
1	9164	8.03	71
1	9175	8.04	0
1	9186	8.05	0
1	9197	8.06	0
1	9208	8.07	0
1	9220	8.08	0
1	9231	8.09	18
1	9243	8.1	0
1	9254	8.11	27
1	9266	8.12	0
1	9277	8.13	33
1	9289	8.14	0
1	9301	8.15	32
1	9312	8.16	50
1	9324	8.17	0
1	9335	8.18	70
1	9346	8.19	0
1	9357	8.2	0
1	9368	8.21	0
1	9379	8.22	0
1	9390	8.23	0
1	9401	8.24	0
1	9412	8.25	0
1	9423	8.26	0
1	9434	8.27	0
1	9445	8.28	0
1	9458	8.29	0
1	9471	8.3	81
1	9482	8.31	83
1	9493	8.32	0
1	9504	8.33	0
1	9515	8.34	0
1	9527	8.35	0
1	9538	8.36	29
1	9550	8.37	0
1	9561	8.38	18
1	9572	8.39	0
1	9584	8.4	0
1	9595	8.41	17
1	9606	8.42	0
1	9617	8.43	0
1	9629	8.44	0
1	9641	8.45	74
1	9653	8.46	55
1	9664	8.47	46
1	9675	8.48	0
1	9687	8.49	0
1	9698	8.5	35
1	9710	8.51	0
1	9721	8.52	68
1	9732	8.53	0
1	9744	8.54	0
1	9756	8.55	70
1	9767	8.56	71
1	9778	8.57	0
1	9792	8.58	0
1	9803	8.59	83
1	9815	8.6	0
1	9826	8.61	30
1	9837	8.62	0
1	9848	8.63	0
1	9859	8.64	0
1	9870	8.65	0
1	9881	8.66	0
1	9892	8.67	0
1	9904	8.68	0
1	9915	8.69	48
1	9927	8.7	0
1	9939	8.71	56
1	9950	8.72	22
1	9962	8.73	0
1	9973	8.74	71
1	9985	8.75	0
1	9998	8.76	17
1	10010	8.77	16
1	10022	8.78	143
1	10033	8.79	42
1	10044	8.8	0
1	10056	8.81	0
1	10067	8.82	14
1	10078	8.83	0
1	10090	8.84	0
1	10101	8.85	62
1	10112	8.86	0
1	10125	8.87	0
1	10136	8.88	48
1	10148	8.89	0
1	10161	8.9	66
1	10172	8.91	53
1	10183	8.92	0
1	10194	8.93	0
1	10206	8.94	0
1	10218	8.95	61
1	10229	8.96	17
1	10241	8.97	0
1	10252	8.98	12
1	10264	8.99	0
1	10275	9	2
1	10287	9.01	0
1	10299	9.02	58
1	10310	9.03	10
1	10321	9.04	0
1	10332	9.05	0
1	10344	9.06	0
1	10355	9.07	51
1	10368	9.08	0
1	10379	9.09	79
1	10390	9.1	0
1	10401	9.11	0
1	10413	9.12	0
1	10424	9.13	66
1	10435	9.14	0
1	10447	9.15	0
1	10458	9.16	31
1	10470	9.17	0
1	10481	9.18	70
1	10492	9.19	0
1	10503	9.2	0
1	10515	9.21	0
1	10526	9.22	55
1	10537	9.23	0
1	10548	9.24	0
1	10559	9.25	0
1	10570	9.26	0
1	10581	9.27	0
1	10592	9.28	0
1	10603	9.29	0
1	10614	9.3	0
1	10625	9.31	0
1	10637	9.32	0
1	10648	9.33	47
1	10663	9.34	0
1	10674	9.35	109
1	10685	9.36	43
1	10696	9.37	0
1	10707	9.38	0
1	10719	9.39	0
1	10730	9.4	35
1	10741	9.41	0
1	10752	9.42	0
1	10763	9.43	0
1	10774	9.44	0
1	10785	9.45	0
1	10798	9.46	0
1	10809	9.47	63
1	10820	9.48	0
1	10831	9.49	0
1	10843	9.5	0
1	10854	9.51	57
1	10865	9.52	0
1	10876	9.53	0
1	10887	9.54	0
1	10898	9.55	0
1	10909	9.56	0
1	10920	9.57	0
1	10931	9.58	0
1	10943	9.59	0
1	10956	9.6	8
1	10968	9.61	111
1	10980	9.62	52
1	10991	9.63	25
1	11002	9.64	0
1	11015	9.65	0
1	11026	9.66	53
1	11037	9.67	0
1	11049	9.68	0
1	11061	9.69	65
1	11072	9.7	50
1	11083	9.71	0
1	11094	9.72	0
1	11105	9.73	0
1	11116	9.74	0
1	11127	9.75	0
1	11138	9.76	0
1	11149	9.77	0
1	11162	9.78	0
1	11173	9.79	8
1	11184	9.8	0
1	11196	9.81	0
1	11208	9.82	27
1	11220	9.83	5
1	11231	9.84	13
1	11243	9.85	0
1	11254	9.86	64
1	11265	9.87	0
1	11278	9.88	0
1	11289	9.89	125
1	11300	9.9	0
1	11311	9.91	0
1	11323	9.92	0
1	11335	9.93	52
1	11347	9.94	3
1	11360	9.95	20
1	11372	9.96	75
1	11383	9.97	57
1	11394	9.98	0
1	11405	9.99	0
1	11416	10	0
2	12	0.01	9
2	24	0.02	1
2	35	0.03	1
2	46	0.04	0
2	57	0.05	0
2	68	0.06	0
2	80	0.07	0
2	91	0.08	1
2	102	0.09	0
2	115	0.1	0
2	126	0.11	2
2	138	0.12	0
2	149	0.13	1
2	161	0.14	0
2	175	0.15	1
2	187	0.16	2
2	198	0.17	1
2	209	0.18	0
2	220	0.19	0
2	231	0.2	0
2	242	0.21	0
2	255	0.22	0
2	266	0.23	2
2	277	0.24	0
2	288	0.25	0
2	299	0.26	0
2	311	0.27	0
2	323	0.28	1
2	334	0.29	1
2	345	0.3	0
2	356	0.31	0
2	367	0.32	0
2	380	0.33	0
2	392	0.34	2
2	403	0.35	1
2	415	0.36	0
2	426	0.37	1
2	439	0.38	0
2	450	0.39	2
2	461	0.4	0
2	472	0.41	0
2	483	0.42	0
2	494	0.43	0
2	505	0.44	0
2	518	0.45	0
2	530	0.46	2
2	541	0.47	1
2	552	0.48	0
2	563	0.49	0
2	575	0.5	0
2	586	0.51	1
2	598	0.52	0
2	609	0.53	1
2	620	0.54	0
2	631	0.55	0
2	642	0.56	0
2	653	0.57	0
2	664	0.58	0
2	675	0.59	0
2	686	0.6	0
2	698	0.61	0
2	709	0.62	1
2	720	0.63	0
2	732	0.64	0
2	743	0.65	1
2	755	0.66	0
2	767	0.67	1
2	780	0.68	1
2	791	0.69	2
2	802	0.7	0
2	813	0.71	0
2	824	0.72	0
2	836	0.73	0
2	848	0.74	1
2	860	0.75	1
2	871	0.76	1
2	882	0.77	0
2	893	0.78	0
2	904	0.79	0
2	915	0.8	0
2	927	0.81	0
2	938	0.82	1
2	949	0.83	0
2	960	0.84	0
2	971	0.85	0
2	982	0.86	0
2	994	0.87	0
2	1005	0.88	1
2	1016	0.89	0
2	1027	0.9	0
2	1039	0.91	0
2	1051	0.92	1
2	1062	0.93	1
2	1073	0.94	0
2	1084	0.95	0
2	1097	0.96	0
2	1108	0.97	2
2	1119	0.98	0
2	1130	0.99	0
2	1141	1	0
2	1152	1.01	0
2	1163	1.02	0
2	1175	1.03	0
2	1186	1.04	1
2	1198	1.05	0
2	1210	1.06	1
2	1221	1.07	1
2	1232	1.08	0
2	1243	1.09	0
2	1254	1.1	0
2	1266	1.11	0
2	1277	1.12	1
2	1288	1.13	0
2	1299	1.14	0
2	1310	1.15	0
2	1321	1.16	0
2	1332	1.17	0
2	1343	1.18	0
2	1354	1.19	0
2	1366	1.2	0
2	1377	1.21	1
2	1389	1.22	0
2	1401	1.23	1
2	1412	1.24	1
2	1424	1.25	0
2	1435	1.26	1
2	1447	1.27	0
2	1458	1.28	1
2	1469	1.29	0
2	1481	1.3	0
2	1494	1.31	1
2	1505	1.32	2
2	1518	1.33	0
2	1529	1.34	2
2	1540	1.35	0
2	1551	1.36	0
2	1563	1.37	0
2	1574	1.38	1
2	1585	1.39	0
2	1596	1.4	0
2	1607	1.41	0
2	1618	1.42	0
2	1630	1.43	0
2	1641	1.44	1
2	1652	1.45	0
2	1663	1.46	0
2	1674	1.47	0
2	1687	1.48	0
2	1699	1.49	2
2	1711	1.5	1
2	1723	1.51	1
2	1734	1.52	1
2	1745	1.53	0
2	1757	1.54	0
2	1768	1.55	1
2	1780	1.56	0
2	1792	1.57	1
2	1804	1.58	1
2	1816	1.59	1
2	1828	1.6	1
2	1839	1.61	1
2	1850	1.62	0
2	1861	1.63	0
2	1874	1.64	0
2	1885	1.65	2
2	1897	1.66	0
2	1909	1.67	1
2	1922	1.68	1
2	1934	1.69	2
2	1945	1.7	1
2	1956	1.71	0
2	1968	1.72	0
2	1979	1.73	1
2	1990	1.74	0
2	2001	1.75	0
2	2012	1.76	0
2	2023	1.77	0
2	2035	1.78	0
2	2047	1.79	1
2	2058	1.8	1
2	2070	1.81	0
2	2082	1.82	1
2	2093	1.83	1
2	2104	1.84	0
2	2115	1.85	0
2	2126	1.86	0
2	2139	1.87	0
2	2150	1.88	2
2	2161	1.89	0
2	2173	1.9	0
2	2184	1.91	1
2	2196	1.92	0
2	2207	1.93	1
2	2218	1.94	0
2	2229	1.95	0
2	2241	1.96	0
2	2253	1.97	1
2	2264	1.98	1
2	2276	1.99	0
2	2287	2	1
2	2299	2.01	0
2	2310	2.02	1
2	2321	2.03	0
2	2333	2.04	0
2	2344	2.05	1
2	2357	2.06	0
2	2368	2.07	2
2	2379	2.08	0
2	2390	2.09	0
2	2401	2.1	0
2	2412	2.11	0
2	2423	2.12	0
2	2434	2.13	0
2	2446	2.14	0
2	2458	2.15	1
2	2469	2.16	1
2	2480	2.17	0
2	2492	2.18	0
2	2504	2.19	1
2	2515	2.2	1
2	2526	2.21	0
2	2537	2.22	0
2	2548	2.23	0
2	2559	2.24	0
2	2570	2.25	0
2	2581	2.26	0
2	2592	2.27	0
2	2604	2.28	0
2	2615	2.29	1
2	2626	2.3	0
2	2637	2.31	0
2	2650	2.32	0
2	2661	2.33	2
2	2672	2.34	0
2	2683	2.35	0
2	2695	2.36	0
2	2706	2.37	1
2	2718	2.38	0
2	2729	2.39	1
2	2741	2.4	0
2	2752	2.41	1
2	2763	2.42	0
2	2774	2.43	0
2	2788	2.44	0
2	2800	2.45	2
2	2812	2.46	1
2	2823	2.47	1
2	2834	2.48	0
2	2845	2.49	0
2	2856	2.5	0
2	2868	2.51	0
2	2880	2.52	1
2	2893	2.53	1
2	2904	2.54	2
2	2915	2.55	0
2	2926	2.56	0
2	2938	2.57	0
2	2949	2.58	1
2	2962	2.59	0
2	2973	2.6	2
2	2984	2.61	0
2	2995	2.62	0
2	3006	2.63	0
2	3017	2.64	0
2	3028	2.65	0
2	3039	2.66	0
2	3050	2.67	0
2	3061	2.68	0
2	3072	2.69	0
2	3084	2.7	0
2	3096	2.71	1
2	3107	2.72	1
2	3118	2.73	0
2	3129	2.74	0
2	3140	2.75	0
2	3152	2.76	0
2	3164	2.77	1
2	3176	2.78	1
2	3187	2.79	1
2	3198	2.8	0
2	3211	2.81	0
2	3222	2.82	2
2	3234	2.83	0
2	3245	2.84	1
2	3256	2.85	0
2	3267	2.86	0
2	3279	2.87	0
2	3290	2.88	1
2	3302	2.89	0
2	3314	2.9	1
2	3325	2.91	1
2	3336	2.92	0
2	3348	2.93	0
2	3359	2.94	1
2	3370	2.95	0
2	3381	2.96	0
2	3393	2.97	0
2	3404	2.98	1
2	3416	2.99	0
2	3427	3	1
2	3438	3.01	0
2	3449	3.02	0
2	3462	3.03	0
2	3474	3.04	2
2	3485	3.05	1
2	3496	3.06	0
2	3507	3.07	0
2	3519	3.08	0
2	3530	3.09	1
2	3541	3.1	0
2	3552	3.11	0
2	3563	3.12	0
2	3574	3.13	0
2	3586	3.14	0
2	3597	3.15	1
2	3608	3.16	0
2	3619	3.17	0
2	3630	3.18	0
2	3641	3.19	0
2	3653	3.2	0
2	3664	3.21	1
2	3675	3.22	0
2	3686	3.23	0
2	3697	3.24	0
2	3708	3.25	0
2	3719	3.26	0
2	3730	3.27	0
2	3741	3.28	0
2	3752	3.29	0
2	3764	3.3	0
2	3775	3.31	1
2	3786	3.32	0
2	3797	3.33	0
2	3809	3.34	0
2	3821	3.35	1
2	3832	3.36	1
2	3844	3.37	0
2	3856	3.38	1
2	3867	3.39	1
2	3879	3.4	0
2	3890	3.41	1
2	3902	3.42	0
2	3913	3.43	1
2	3925	3.44	0
2	3936	3.45	1
2	3947	3.46	0
2	3958	3.47	0
2	3970	3.48	0
2	3981	3.49	1
2	3993	3.5	0
2	4004	3.51	1
2	4015	3.52	0
2	4028	3.53	0
2	4039	3.54	2
2	4050	3.55	0
2	4062	3.56	0
2	4073	3.57	1
2	4084	3.58	0
2	4095	3.59	0
2	4107	3.6	0
2	4118	3.61	1
2	4129	3.62	0
2	4141	3.63	0
2	4152	3.64	1
2	4165	3.65	0
2	4176	3.66	2
2	4188	3.67	0
2	4199	3.68	1
2	4210	3.69	0
2	4222	3.7	0
2	4233	3.71	1
2	4244	3.72	0
2	4256	3.73	0
2	4270	3.74	1
2	4281	3.75	3
2	4293	3.76	0
2	4306	3.77	1
2	4317	3.78	2
2	4328	3.79	0
2	4339	3.8	0
2	4350	3.81	0
2	4363	3.82	0
2	4374	3.83	2
2	4386	3.84	0
2	4397	3.85	1
2	4408	3.86	0
2	4420	3.87	0
2	4431	3.88	1
2	4443	3.89	0
2	4455	3.9	1
2	4466	3.91	1
2	4477	3.92	0
2	4488	3.93	0
2	4500	3.94	0
2	4511	3.95	1
2	4522	3.96	0
2	4534	3.97	0
2	4545	3.98	1
2	4556	3.99	0
2	4567	4	0
2	4578	4.01	0
2	4590	4.02	0
2	4601	4.03	1
2	4612	4.04	0
2	4625	4.05	0
2	4636	4.06	2
2	4647	4.07	0
2	4658	4.08	0
2	4669	4.09	0
2	4681	4.1	0
2	4692	4.11	1
2	4703	4.12	0
2	4714	4.13	0
2	4725	4.14	0
2	4738	4.15	0
2	4749	4.16	2
2	4760	4.17	0
2	4771	4.18	0
2	4782	4.19	0
2	4793	4.2	0
2	4804	4.21	0
2	4817	4.22	0
2	4828	4.23	2
2	4839	4.24	0
2	4850	4.25	0
2	4861	4.26	0
2	4872	4.27	0
2	4884	4.28	0
2	4897	4.29	1
2	4909	4.3	2
2	4920	4.31	1
2	4932	4.32	0
2	4943	4.33	1
2	4955	4.34	0
2	4966	4.35	1
2	4977	4.36	0
2	4988	4.37	0
2	4999	4.38	0
2	5010	4.39	0
2	5023	4.4	0
2	5035	4.41	2
2	5047	4.42	1
2	5058	4.43	1
2	5069	4.44	0
2	5081	4.45	0
2	5092	4.46	1
2	5103	4.47	0
2	5114	4.48	0
2	5126	4.49	0
2	5137	4.5	1
2	5148	4.51	0
2	5159	4.52	0
2	5170	4.53	0
2	5181	4.54	0
2	5194	4.55	0
2	5206	4.56	2
2	5218	4.57	1
2	5229	4.58	1
2	5241	4.59	0
2	5252	4.6	1
2	5264	4.61	0
2	5276	4.62	1
2	5287	4.63	1
2	5298	4.64	0
2	5309	4.65	0
2	5320	4.66	0
2	5331	4.67	0
2	5342	4.68	0
2	5353	4.69	0
2	5364	4.7	0
2	5375	4.71	0
2	5386	4.72	0
2	5398	4.73	0
2	5409	4.74	1
2	5420	4.75	0
2	5431	4.76	0
2	5443	4.77	0
2	5455	4.78	1
2	5466	4.79	1
2	5477	4.8	0
2	5490	4.81	0
2	5501	4.82	2
2	5514	4.83	0
2	5525	4.84	2
2	5536	4.85	0
2	5547	4.86	0
2	5558	4.87	0
2	5569	4.88	0
2	5581	4.89	0
2	5592	4.9	1
2	5603	4.91	0
2	5615	4.92	0
2	5627	4.93	1
2	5640	4.94	1
2	5654	4.95	2
2	5665	4.96	2
2	5676	4.97	0
2	5687	4.98	0
2	5698	4.99	0
2	5710	5	0
2	5721	5.01	1
2	5732	5.02	0
2	5743	5.03	0
2	5754	5.04	0
2	5765	5.05	0
2	5777	5.06	0
2	5788	5.07	1
2	5799	5.08	0
2	5810	5.09	0
2	5821	5.1	0
2	5832	5.11	0
2	5843	5.12	0
2	5856	5.13	0
2	5867	5.14	2
2	5878	5.15	0
2	5889	5.16	0
2	5901	5.17	0
2	5915	5.18	1
2	5926	5.19	3
2	5937	5.2	0
2	5948	5.21	0
2	5960	5.22	0
2	5971	5.23	1
2	5983	5.24	0
2	5994	5.25	1
2	6005	5.26	0
2	6016	5.27	0
2	6028	5.28	0
2	6040	5.29	1
2	6052	5.3	1
2	6063	5.31	1
2	6074	5.32	0
2	6085	5.33	0
2	6096	5.34	0
2	6107	5.35	0
2	6119	5.36	0
2	6131	5.37	1
2	6143	5.38	1
2	6154	5.39	1
2	6166	5.4	0
2	6178	5.41	1
2	6189	5.42	1
2	6200	5.43	0
2	6211	5.44	0
2	6223	5.45	0
2	6234	5.46	1
2	6246	5.47	0
2	6257	5.48	1
2	6268	5.49	0
2	6279	5.5	0
2	6291	5.51	0
2	6302	5.52	1
2	6314	5.53	0
2	6325	5.54	1
2	6337	5.55	0
2	6348	5.56	1
2	6359	5.57	0
2	6370	5.58	0
2	6381	5.59	0
2	6393	5.6	0
2	6405	5.61	1
2	6417	5.62	1
2	6429	5.63	1
2	6440	5.64	1
2	6451	5.65	0
2	6462	5.66	0
2	6474	5.67	0
2	6486	5.68	1
2	6497	5.69	1
2	6508	5.7	0
2	6519	5.71	0
2	6532	5.72	0
2	6543	5.73	2
2	6554	5.74	0
2	6566	5.75	0
2	6577	5.76	1
2	6588	5.77	0
2	6599	5.78	0
2	6611	5.79	0
2	6624	5.8	1
2	6635	5.81	2
2	6646	5.82	0
2	6658	5.83	0
2	6670	5.84	1
2	6681	5.85	1
2	6693	5.86	0
2	6704	5.87	1
2	6715	5.88	0
2	6726	5.89	0
2	6737	5.9	0
2	6748	5.91	0
2	6760	5.92	0
2	6772	5.93	1
2	6783	5.94	1
2	6794	5.95	0
2	6805	5.96	0
2	6816	5.97	0
2	6827	5.98	0
2	6839	5.99	0
2	6850	6	1
2	6863	6.01	0
2	6874	6.02	2
2	6886	6.03	0
2	6897	6.04	1
2	6909	6.05	0
2	6922	6.06	1
2	6934	6.07	2
2	6946	6.08	1
2	6957	6.09	1
2	6969	6.1	0
2	6980	6.11	1
2	6991	6.12	0
2	7002	6.13	0
2	7014	6.14	0
2	7025	6.15	1
2	7036	6.16	0
2	7047	6.17	0
2	7058	6.18	0
2	7069	6.19	0
2	7080	6.2	0
2	7093	6.21	0
2	7104	6.22	2
2	7116	6.23	0
2	7127	6.24	1
2	7138	6.25	0
2	7149	6.26	0
2	7160	6.27	0
2	7172	6.28	0
2	7183	6.29	1
2	7194	6.3	0
2	7205	6.31	0
2	7217	6.32	0
2	7228	6.33	1
2	7239	6.34	0
2	7251	6.35	0
2	7262	6.36	1
2	7273	6.37	0
2	7284	6.38	0
2	7296	6.39	0
2	7307	6.4	1
2	7318	6.41	0
2	7329	6.42	0
2	7340	6.43	0
2	7352	6.44	0
2	7363	6.45	1
2	7374	6.46	0
2	7385	6.47	0
2	7396	6.48	0
2	7407	6.49	0
2	7418	6.5	0
2	7429	6.51	0
2	7440	6.52	0
2	7452	6.53	0
2	7464	6.54	1
2	7475	6.55	1
2	7486	6.56	0
2	7498	6.57	0
2	7509	6.58	1
2	7520	6.59	0
2	7531	6.6	0
2	7542	6.61	0
2	7553	6.62	0
2	7564	6.63	0
2	7575	6.64	0
2	7586	6.65	0
2	7599	6.66	0
2	7610	6.67	2
2	7621	6.68	0
2	7632	6.69	0
2	7643	6.7	0
2	7655	6.71	0
2	7666	6.72	1
2	7677	6.73	0
2	7688	6.74	0
2	7700	6.75	0
2	7713	6.76	1
2	7725	6.77	2
2	7736	6.78	1
2	7747	6.79	0
2	7758	6.8	0
2	7770	6.81	0
2	7781	6.82	1
2	7792	6.83	0
2	7804	6.84	0
2	7817	6.85	1
2	7828	6.86	2
2	7840	6.87	0
2	7851	6.88	1
2	7862	6.89	0
2	7873	6.9	0
2	7884	6.91	0
2	7897	6.92	0
2	7909	6.93	1
2	7920	6.94	1
2	7932	6.95	0
2	7943	6.96	1
2	7954	6.97	0
2	7965	6.98	0
2	7976	6.99	0
2	7987	7	0
2	7998	7.01	0
2	8009	7.02	0
2	8020	7.03	0
2	8032	7.04	0
2	8045	7.05	1
2	8059	7.06	2
2	8070	7.07	2
2	8081	7.08	0
2	8093	7.09	0
2	8105	7.1	1
2	8116	7.11	1
2	8127	7.12	0
2	8138	7.13	0
2	8149	7.14	0
2	8160	7.15	0
2	8171	7.16	0
2	8183	7.17	0
2	8194	7.18	1
2	8205	7.19	0
2	8217	7.2	0
2	8228	7.21	1
2	8240	7.22	0
2	8251	7.23	1
2	8263	7.24	0
2	8274	7.25	1
2	8286	7.26	0
2	8297	7.27	1
2	8309	7.28	0
2	8322	7.29	1
2	8336	7.3	2
2	8347	7.31	3
2	8358	7.32	0
2	8369	7.33	0
2	8381	7.34	0
2	8393	7.35	1
2	8405	7.36	1
2	8416	7.37	1
2	8427	7.38	0
2	8440	7.39	0
2	8451	7.4	2
2	8462	7.41	0
2	8473	7.42	0
2	8484	7.43	0
2	8495	7.44	0
2	8509	7.45	0
2	8521	7.46	2
2	8534	7.47	1
2	8545	7.48	2
2	8556	7.49	0
2	8567	7.5	0
2	8578	7.51	0
2	8590	7.52	0
2	8601	7.53	1
2	8613	7.54	0
2	8624	7.55	1
2	8636	7.56	0
2	8648	7.57	1
2	8659	7.58	1
2	8671	7.59	0
2	8682	7.6	1
2	8693	7.61	0
2	8704	7.62	0
2	8715	7.63	0
2	8726	7.64	0
2	8737	7.65	0
2	8748	7.66	0
2	8760	7.67	0
2	8771	7.68	1
2	8782	7.69	0
2	8793	7.7	0
2	8804	7.71	0
2	8815	7.72	0
2	8826	7.73	0
2	8837	7.74	0
2	8848	7.75	0
2	8859	7.76	0
2	8870	7.77	0
2	8882	7.78	0
2	8893	7.79	1
2	8904	7.8	0
2	8915	7.81	0
2	8926	7.82	0
2	8937	7.83	0
2	8948	7.84	0
2	8959	7.85	0
2	8970	7.86	0
2	8981	7.87	0
2	8992	7.88	0
2	9003	7.89	0
2	9015	7.9	0
2	9026	7.91	1
2	9037	7.92	0
2	9049	7.93	0
2	9061	7.94	1
2	9073	7.95	1
2	9085	7.96	1
2	9096	7.97	1
2	9107	7.98	0
2	9118	7.99	0
2	9129	8	0
2	9141	8.01	0
2	9153	8.02	1
2	9164	8.03	1
2	9175	8.04	0
2	9186	8.05	0
2	9197	8.06	0
2	9208	8.07	0
2	9220	8.08	0
2	9231	8.09	1
2	9243	8.1	0
2	9254	8.11	1
2	9266	8.12	0
2	9277	8.13	1
2	9289	8.14	0
2	9301	8.15	1
2	9312	8.16	1
2	9324	8.17	0
2	9335	8.18	1
2	9346	8.19	0
2	9357	8.2	0
2	9368	8.21	0
2	9379	8.22	0
2	9390	8.23	0
2	9401	8.24	0
2	9412	8.25	0
2	9423	8.26	0
2	9434	8.27	0
2	9445	8.28	0
2	9458	8.29	0
2	9471	8.3	2
2	9482	8.31	2
2	9493	8.32	0
2	9504	8.33	0
2	9515	8.34	0
2	9527	8.35	0
2	9538	8.36	1
2	9550	8.37	0
2	9561	8.38	1
2	9572	8.39	0
2	9584	8.4	0
2	9595	8.41	1
2	9606	8.42	0
2	9617	8.43	0
2	9629	8.44	0
2	9641	8.45	1
2	9653	8.46	1
2	9664	8.47	1
2	9675	8.48	0
2	9687	8.49	0
2	9698	8.5	1
2	9710	8.51	0
2	9721	8.52	1
2	9732	8.53	0
2	9744	8.54	0
2	9756	8.55	1
2	9767	8.56	1
2	9778	8.57	0
2	9792	8.58	0
2	9803	8.59	3
2	9815	8.6	0
2	9826	8.61	1
2	9837	8.62	0
2	9848	8.63	0
2	9859	8.64	0
2	9870	8.65	0
2	9881	8.66	0
2	9892	8.67	0
2	9904	8.68	0
2	9915	8.69	1
2	9927	8.7	0
2	9939	8.71	1
2	9950	8.72	1
2	9962	8.73	0
2	9973	8.74	1
2	9985	8.75	0
2	9998	8.76	1
2	10010	8.77	1
2	10022	8.78	2
2	10033	8.79	1
2	10044	8.8	0
2	10056	8.81	0
2	10067	8.82	1
2	10078	8.83	0
2	10090	8.84	0
2	10101	8.85	1
2	10112	8.86	0
2	10125	8.87	0
2	10136	8.88	2
2	10148	8.89	0
2	10161	8.9	1
2	10172	8.91	2
2	10183	8.92	0
2	10194	8.93	0
2	10206	8.94	0
2	10218	8.95	1
2	10229	8.96	1
2	10241	8.97	0
2	10252	8.98	1
2	10264	8.99	0
2	10275	9	1
2	10287	9.01	0
2	10299	9.02	1
2	10310	9.03	1
2	10321	9.04	0
2	10332	9.05	0
2	10344	9.06	0
2	10355	9.07	1
2	10368	9.08	0
2	10379	9.09	2
2	10390	9.1	0
2	10401	9.11	0
2	10413	9.12	0
2	10424	9.13	1
2	10435	9.14	0
2	10447	9.15	0
2	10458	9.16	1
2	10470	9.17	0
2	10481	9.18	1
2	10492	9.19	0
2	10503	9.2	0
2	10515	9.21	0
2	10526	9.22	1
2	10537	9.23	0
2	10548	9.24	0
2	10559	9.25	0
2	10570	9.26	0
2	10581	9.27	0
2	10592	9.28	0
2	10603	9.29	0
2	10614	9.3	0
2	10625	9.31	0
2	10637	9.32	0
2	10648	9.33	1
2	10663	9.34	0
2	10674	9.35	3
2	10685	9.36	1
2	10696	9.37	0
2	10707	9.38	0
2	10719	9.39	0
2	10730	9.4	1
2	10741	9.41	0
2	10752	9.42	0
2	10763	9.43	0
2	10774	9.44	0
2	10785	9.45	0
2	10798	9.46	0
2	10809	9.47	2
2	10820	9.48	0
2	10831	9.49	0
2	10843	9.5	0
2	10854	9.51	1
2	10865	9.52	0
2	10876	9.53	0
2	10887	9.54	0
2	10898	9.55	0
2	10909	9.56	0
2	10920	9.57	0
2	10931	9.58	0
2	10943	9.59	0
2	10956	9.6	1
2	10968	9.61	2
2	10980	9.62	1
2	10991	9.63	1
2	11002	9.64	0
2	11015	9.65	0
2	11026	9.66	1
2	11037	9.67	0
2	11049	9.68	0
2	11061	9.69	1
2	11072	9.7	1
2	11083	9.71	0
2	11094	9.72	0
2	11105	9.73	0
2	11116	9.74	0
2	11127	9.75	0
2	11138	9.76	0
2	11149	9.77	0
2	11162	9.78	0
2	11173	9.79	2
2	11184	9.8	0
2	11196	9.81	0
2	11208	9.82	1
2	11220	9.83	1
2	11231	9.84	1
2	11243	9.85	0
2	11254	9.86	1
2	11265	9.87	0
2	11278	9.88	0
2	11289	9.89	1
2	11300	9.9	0
2	11311	9.91	0
2	11323	9.92	0
2	11335	9.93	1
2	11347	9.94	1
2	11360	9.95	1
2	11372	9.96	2
2	11383	9.97	1
2	11394	9.98	0
2	11405	9.99	0
2	11416	10	0
3	12	0.01	0
3	24	0.02	0
3	35	0.03	0
3	46	0.04	0
3	57	0.05	0
3	68	0.06	0
3	80	0.07	0
3	91	0.08	0
3	102	0.09	0
3	115	0.1	0
3	126	0.11	0
3	138	0.12	0
3	149	0.13	0
3	161	0.14	0
3	175	0.15	0
3	187	0.16	0
3	198	0.17	0
3	209	0.18	0
3	220	0.19	0
3	231	0.2	0
3	242	0.21	0
3	255	0.22	0
3	266	0.23	0
3	277	0.24	0
3	288	0.25	0
3	299	0.26	0
3	311	0.27	0
3	323	0.28	0
3	334	0.29	0
3	345	0.3	0
3	356	0.31	0
3	367	0.32	0
3	380	0.33	0
3	392	0.34	0
3	403	0.35	0
3	415	0.36	0
3	426	0.37	0
3	439	0.38	0
3	450	0.39	0
3	461	0.4	0
3	472	0.41	0
3	483	0.42	0
3	494	0.43	0
3	505	0.44	0
3	518	0.45	0
3	530	0.46	0
3	541	0.47	0
3	552	0.48	0
3	563	0.49	0
3	575	0.5	0
3	586	0.51	0
3	598	0.52	0
3	609	0.53	0
3	620	0.54	0
3	631	0.55	0
3	642	0.56	0
3	653	0.57	0
3	664	0.58	0
3	675	0.59	0
3	686	0.6	0
3	698	0.61	0
3	709	0.62	0
3	720	0.63	0
3	732	0.64	0
3	743	0.65	0
3	755	0.66	0
3	767	0.67	0
3	780	0.68	0
3	791	0.69	0
3	802	0.7	0
3	813	0.71	0
3	824	0.72	0
3	836	0.73	0
3	848	0.74	0
3	860	0.75	0
3	871	0.76	0
3	882	0.77	0
3	893	0.78	0
3	904	0.79	0
3	915	0.8	0
3	927	0.81	0
3	938	0.82	0
3	949	0.83	0
3	960	0.84	0
3	971	0.85	0
3	982	0.86	0
3	994	0.87	0
3	1005	0.88	0
3	1016	0.89	0
3	1027	0.9	0
3	1039	0.91	0
3	1051	0.92	0
3	1062	0.93	0
3	1073	0.94	0
3	1084	0.95	0
3	1097	0.96	0
3	1108	0.97	0
3	1119	0.98	0
3	1130	0.99	0
3	1141	1	0
3	1152	1.01	0
3	1163	1.02	0
3	1175	1.03	0
3	1186	1.04	0
3	1198	1.05	0
3	1210	1.06	0
3	1221	1.07	0
3	1232	1.08	0
3	1243	1.09	0
3	1254	1.1	0
3	1266	1.11	0
3	1277	1.12	0
3	1288	1.13	0
3	1299	1.14	0
3	1310	1.15	0
3	1321	1.16	0
3	1332	1.17	0
3	1343	1.18	0
3	1354	1.19	0
3	1366	1.2	0
3	1377	1.21	0
3	1389	1.22	0
3	1401	1.23	0
3	1412	1.24	0
3	1424	1.25	0
3	1435	1.26	0
3	1447	1.27	0
3	1458	1.28	0
3	1469	1.29	0
3	1481	1.3	0
3	1494	1.31	0
3	1505	1.32	0
3	1518	1.33	0
3	1529	1.34	0
3	1540	1.35	0
3	1551	1.36	0
3	1563	1.37	0
3	1574	1.38	0
3	1585	1.39	0
3	1596	1.4	0
3	1607	1.41	0
3	1618	1.42	0
3	1630	1.43	0
3	1641	1.44	0
3	1652	1.45	0
3	1663	1.46	0
3	1674	1.47	0
3	1687	1.48	0
3	1699	1.49	0
3	1711	1.5	0
3	1723	1.51	0
3	1734	1.52	0
3	1745	1.53	0
3	1757	1.54	0
3	1768	1.55	0
3	1780	1.56	0
3	1792	1.57	0
3	1804	1.58	0
3	1816	1.59	0
3	1828	1.6	0
3	1839	1.61	0
3	1850	1.62	0
3	1861	1.63	0
3	1874	1.64	0
3	1885	1.65	0
3	1897	1.66	0
3	1909	1.67	0
3	1922	1.68	0
3	1934	1.69	0
3	1945	1.7	0
3	1956	1.71	0
3	1968	1.72	0
3	1979	1.73	0
3	1990	1.74	0
3	2001	1.75	0
3	2012	1.76	0
3	2023	1.77	0
3	2035	1.78	0
3	2047	1.79	0
3	2058	1.8	0
3	2070	1.81	0
3	2082	1.82	0
3	2093	1.83	0
3	2104	1.84	0
3	2115	1.85	0
3	2126	1.86	0
3	2139	1.87	0
3	2150	1.88	0
3	2161	1.89	0
3	2173	1.9	0
3	2184	1.91	0
3	2196	1.92	0
3	2207	1.93	0
3	2218	1.94	0
3	2229	1.95	0
3	2241	1.96	0
3	2253	1.97	0
3	2264	1.98	0
3	2276	1.99	0
3	2287	2	0
3	2299	2.01	0
3	2310	2.02	0
3	2321	2.03	0
3	2333	2.04	0
3	2344	2.05	0
3	2357	2.06	0
3	2368	2.07	0
3	2379	2.08	0
3	2390	2.09	0
3	2401	2.1	0
3	2412	2.11	0
3	2423	2.12	0
3	2434	2.13	0
3	2446	2.14	0
3	2458	2.15	0
3	2469	2.16	0
3	2480	2.17	0
3	2492	2.18	0
3	2504	2.19	0
3	2515	2.2	0
3	2526	2.21	0
3	2537	2.22	0
3	2548	2.23	0
3	2559	2.24	0
3	2570	2.25	0
3	2581	2.26	0
3	2592	2.27	0
3	2604	2.28	0
3	2615	2.29	0
3	2626	2.3	0
3	2637	2.31	0
3	2650	2.32	0
3	2661	2.33	0
3	2672	2.34	0
3	2683	2.35	0
3	2695	2.36	0
3	2706	2.37	0
3	2718	2.38	0
3	2729	2.39	0
3	2741	2.4	0
3	2752	2.41	0
3	2763	2.42	0
3	2774	2.43	0
3	2788	2.44	0
3	2800	2.45	0
3	2812	2.46	0
3	2823	2.47	0
3	2834	2.48	0
3	2845	2.49	0
3	2856	2.5	0
3	2868	2.51	0
3	2880	2.52	0
3	2893	2.53	0
3	2904	2.54	0
3	2915	2.55	0
3	2926	2.56	0
3	2938	2.57	0
3	2949	2.58	0
3	2962	2.59	0
3	2973	2.6	0
3	2984	2.61	0
3	2995	2.62	0
3	3006	2.63	0
3	3017	2.64	0
3	3028	2.65	0
3	3039	2.66	0
3	3050	2.67	0
3	3061	2.68	0
3	3072	2.69	0
3	3084	2.7	0
3	3096	2.71	0
3	3107	2.72	0
3	3118	2.73	0
3	3129	2.74	0
3	3140	2.75	0
3	3152	2.76	0
3	3164	2.77	0
3	3176	2.78	0
3	3187	2.79	0
3	3198	2.8	0
3	3211	2.81	0
3	3222	2.82	0
3	3234	2.83	0
3	3245	2.84	0
3	3256	2.85	0
3	3267	2.86	0
3	3279	2.87	0
3	3290	2.88	0
3	3302	2.89	0
3	3314	2.9	0
3	3325	2.91	0
3	3336	2.92	0
3	3348	2.93	0
3	3359	2.94	0
3	3370	2.95	0
3	3381	2.96	0
3	3393	2.97	0
3	3404	2.98	0
3	3416	2.99	0
3	3427	3	0
3	3438	3.01	0
3	3449	3.02	0
3	3462	3.03	0
3	3474	3.04	0
3	3485	3.05	0
3	3496	3.06	0
3	3507	3.07	0
3	3519	3.08	0
3	3530	3.09	0
3	3541	3.1	0
3	3552	3.11	0
3	3563	3.12	0
3	3574	3.13	0
3	3586	3.14	0
3	3597	3.15	0
3	3608	3.16	0
3	3619	3.17	0
3	3630	3.18	0
3	3641	3.19	0
3	3653	3.2	0
3	3664	3.21	0
3	3675	3.22	0
3	3686	3.23	0
3	3697	3.24	0
3	3708	3.25	0
3	3719	3.26	0
3	3730	3.27	0
3	3741	3.28	0
3	3752	3.29	0
3	3764	3.3	0
3	3775	3.31	0
3	3786	3.32	0
3	3797	3.33	0
3	3809	3.34	0
3	3821	3.35	0
3	3832	3.36	0
3	3844	3.37	0
3	3856	3.38	0
3	3867	3.39	0
3	3879	3.4	0
3	3890	3.41	0
3	3902	3.42	0
3	3913	3.43	0
3	3925	3.44	0
3	3936	3.45	0
3	3947	3.46	0
3	3958	3.47	0
3	3970	3.48	0
3	3981	3.49	0
3	3993	3.5	0
3	4004	3.51	0
3	4015	3.52	0
3	4028	3.53	0
3	4039	3.54	0
3	4050	3.55	0
3	4062	3.56	0
3	4073	3.57	0
3	4084	3.58	0
3	4095	3.59	0
3	4107	3.6	0
3	4118	3.61	0
3	4129	3.62	0
3	4141	3.63	0
3	4152	3.64	0
3	4165	3.65	0
3	4176	3.66	0
3	4188	3.67	0
3	4199	3.68	0
3	4210	3.69	0
3	4222	3.7	0
3	4233	3.71	0
3	4244	3.72	0
3	4256	3.73	0
3	4270	3.74	0
3	4281	3.75	0
3	4293	3.76	0
3	4306	3.77	0
3	4317	3.78	0
3	4328	3.79	0
3	4339	3.8	0
3	4350	3.81	0
3	4363	3.82	0
3	4374	3.83	0
3	4386	3.84	0
3	4397	3.85	0
3	4408	3.86	0
3	4420	3.87	0
3	4431	3.88	0
3	4443	3.89	0
3	4455	3.9	0
3	4466	3.91	0
3	4477	3.92	0
3	4488	3.93	0
3	4500	3.94	0
3	4511	3.95	0
3	4522	3.96	0
3	4534	3.97	0
3	4545	3.98	0
3	4556	3.99	0
3	4567	4	0
3	4578	4.01	0
3	4590	4.02	0
3	4601	4.03	0
3	4612	4.04	0
3	4625	4.05	0
3	4636	4.06	0
3	4647	4.07	0
3	4658	4.08	0
3	4669	4.09	0
3	4681	4.1	0
3	4692	4.11	0
3	4703	4.12	0
3	4714	4.13	0
3	4725	4.14	0
3	4738	4.15	0
3	4749	4.16	0
3	4760	4.17	0
3	4771	4.18	0
3	4782	4.19	0
3	4793	4.2	0
3	4804	4.21	0
3	4817	4.22	0
3	4828	4.23	0
3	4839	4.24	0
3	4850	4.25	0
3	4861	4.26	0
3	4872	4.27	0
3	4884	4.28	0
3	4897	4.29	0
3	4909	4.3	0
3	4920	4.31	0
3	4932	4.32	0
3	4943	4.33	0
3	4955	4.34	0
3	4966	4.35	0
3	4977	4.36	0
3	4988	4.37	0
3	4999	4.38	0
3	5010	4.39	0
3	5023	4.4	0
3	5035	4.41	0
3	5047	4.42	0
3	5058	4.43	0
3	5069	4.44	0
3	5081	4.45	0
3	5092	4.46	0
3	5103	4.47	0
3	5114	4.48	0
3	5126	4.49	0
3	5137	4.5	0
3	5148	4.51	0
3	5159	4.52	0
3	5170	4.53	0
3	5181	4.54	0
3	5194	4.55	0
3	5206	4.56	0
3	5218	4.57	0
3	5229	4.58	0
3	5241	4.59	0
3	5252	4.6	0
3	5264	4.61	0
3	5276	4.62	0
3	5287	4.63	0
3	5298	4.64	0
3	5309	4.65	0
3	5320	4.66	0
3	5331	4.67	0
3	5342	4.68	0
3	5353	4.69	0
3	5364	4.7	0
3	5375	4.71	0
3	5386	4.72	0
3	5398	4.73	0
3	5409	4.74	0
3	5420	4.75	0
3	5431	4.76	0
3	5443	4.77	0
3	5455	4.78	0
3	5466	4.79	0
3	5477	4.8	0
3	5490	4.81	0
3	5501	4.82	0
3	5514	4.83	0
3	5525	4.84	0
3	5536	4.85	0
3	5547	4.86	0
3	5558	4.87	0
3	5569	4.88	0
3	5581	4.89	0
3	5592	4.9	0
3	5603	4.91	0
3	5615	4.92	0
3	5627	4.93	0
3	5640	4.94	0
3	5654	4.95	0
3	5665	4.96	0
3	5676	4.97	0
3	5687	4.98	0
3	5698	4.99	0
3	5710	5	0
3	5721	5.01	0
3	5732	5.02	0
3	5743	5.03	0
3	5754	5.04	0
3	5765	5.05	0
3	5777	5.06	0
3	5788	5.07	0
3	5799	5.08	0
3	5810	5.09	0
3	5821	5.1	0
3	5832	5.11	0
3	5843	5.12	0
3	5856	5.13	0
3	5867	5.14	0
3	5878	5.15	0
3	5889	5.16	0
3	5901	5.17	0
3	5915	5.18	0
3	5926	5.19	0
3	5937	5.2	0
3	5948	5.21	0
3	5960	5.22	0
3	5971	5.23	0
3	5983	5.24	0
3	5994	5.25	0
3	6005	5.26	0
3	6016	5.27	0
3	6028	5.28	0
3	6040	5.29	0
3	6052	5.3	0
3	6063	5.31	0
3	6074	5.32	0
3	6085	5.33	0
3	6096	5.34	0
3	6107	5.35	0
3	6119	5.36	0
3	6131	5.37	0
3	6143	5.38	0
3	6154	5.39	0
3	6166	5.4	0
3	6178	5.41	0
3	6189	5.42	0
3	6200	5.43	0
3	6211	5.44	0
3	6223	5.45	0
3	6234	5.46	0
3	6246	5.47	0
3	6257	5.48	0
3	6268	5.49	0
3	6279	5.5	0
3	6291	5.51	0
3	6302	5.52	0
3	6314	5.53	0
3	6325	5.54	0
3	6337	5.55	0
3	6348	5.56	0
3	6359	5.57	0
3	6370	5.58	0
3	6381	5.59	0
3	6393	5.6	0
3	6405	5.61	0
3	6417	5.62	0
3	6429	5.63	0
3	6440	5.64	0
3	6451	5.65	0
3	6462	5.66	0
3	6474	5.67	0
3	6486	5.68	0
3	6497	5.69	0
3	6508	5.7	0
3	6519	5.71	0
3	6532	5.72	0
3	6543	5.73	0
3	6554	5.74	0
3	6566	5.75	0
3	6577	5.76	0
3	6588	5.77	0
3	6599	5.78	0
3	6611	5.79	0
3	6624	5.8	0
3	6635	5.81	0
3	6646	5.82	0
3	6658	5.83	0
3	6670	5.84	0
3	6681	5.85	0
3	6693	5.86	0
3	6704	5.87	0
3	6715	5.88	0
3	6726	5.89	0
3	6737	5.9	0
3	6748	5.91	0
3	6760	5.92	0
3	6772	5.93	0
3	6783	5.94	0
3	6794	5.95	0
3	6805	5.96	0
3	6816	5.97	0
3	6827	5.98	0
3	6839	5.99	0
3	6850	6	0
3	6863	6.01	0
3	6874	6.02	0
3	6886	6.03	0
3	6897	6.04	0
3	6909	6.05	0
3	6922	6.06	0
3	6934	6.07	0
3	6946	6.08	0
3	6957	6.09	0
3	6969	6.1	0
3	6980	6.11	0
3	6991	6.12	0
3	7002	6.13	0
3	7014	6.14	0
3	7025	6.15	0
3	7036	6.16	0
3	7047	6.17	0
3	7058	6.18	0
3	7069	6.19	0
3	7080	6.2	0
3	7093	6.21	0
3	7104	6.22	0
3	7116	6.23	0
3	7127	6.24	0
3	7138	6.25	0
3	7149	6.26	0
3	7160	6.27	0
3	7172	6.28	0
3	7183	6.29	0
3	7194	6.3	0
3	7205	6.31	0
3	7217	6.32	0
3	7228	6.33	0
3	7239	6.34	0
3	7251	6.35	0
3	7262	6.36	0
3	7273	6.37	0
3	7284	6.38	0
3	7296	6.39	0
3	7307	6.4	0
3	7318	6.41	0
3	7329	6.42	0
3	7340	6.43	0
3	7352	6.44	0
3	7363	6.45	0
3	7374	6.46	0
3	7385	6.47	0
3	7396	6.48	0
3	7407	6.49	0
3	7418	6.5	0
3	7429	6.51	0
3	7440	6.52	0
3	7452	6.53	0
3	7464	6.54	0
3	7475	6.55	0
3	7486	6.56	0
3	7498	6.57	0
3	7509	6.58	0
3	7520	6.59	0
3	7531	6.6	0
3	7542	6.61	0
3	7553	6.62	0
3	7564	6.63	0
3	7575	6.64	0
3	7586	6.65	0
3	7599	6.66	0
3	7610	6.67	0
3	7621	6.68	0
3	7632	6.69	0
3	7643	6.7	0
3	7655	6.71	0
3	7666	6.72	0
3	7677	6.73	0
3	7688	6.74	0
3	7700	6.75	0
3	7713	6.76	0
3	7725	6.77	0
3	7736	6.78	0
3	7747	6.79	0
3	7758	6.8	0
3	7770	6.81	0
3	7781	6.82	0
3	7792	6.83	0
3	7804	6.84	0
3	7817	6.85	0
3	7828	6.86	0
3	7840	6.87	0
3	7851	6.88	0
3	7862	6.89	0
3	7873	6.9	0
3	7884	6.91	0
3	7897	6.92	0
3	7909	6.93	0
3	7920	6.94	0
3	7932	6.95	0
3	7943	6.96	0
3	7954	6.97	0
3	7965	6.98	0
3	7976	6.99	0
3	7987	7	0
3	7998	7.01	0
3	8009	7.02	0
3	8020	7.03	0
3	8032	7.04	0
3	8045	7.05	0
3	8059	7.06	0
3	8070	7.07	0
3	8081	7.08	0
3	8093	7.09	0
3	8105	7.1	0
3	8116	7.11	0
3	8127	7.12	0
3	8138	7.13	0
3	8149	7.14	0
3	8160	7.15	0
3	8171	7.16	0
3	8183	7.17	0
3	8194	7.18	0
3	8205	7.19	0
3	8217	7.2	0
3	8228	7.21	0
3	8240	7.22	0
3	8251	7.23	0
3	8263	7.24	0
3	8274	7.25	0
3	8286	7.26	0
3	8297	7.27	0
3	8309	7.28	0
3	8322	7.29	0
3	8336	7.3	0
3	8347	7.31	0
3	8358	7.32	0
3	8369	7.33	0
3	8381	7.34	0
3	8393	7.35	0
3	8405	7.36	0
3	8416	7.37	0
3	8427	7.38	0
3	8440	7.39	0
3	8451	7.4	0
3	8462	7.41	0
3	8473	7.42	0
3	8484	7.43	0
3	8495	7.44	0
3	8509	7.45	0
3	8521	7.46	0
3	8534	7.47	0
3	8545	7.48	0
3	8556	7.49	0
3	8567	7.5	0
3	8578	7.51	0
3	8590	7.52	0
3	8601	7.53	0
3	8613	7.54	0
3	8624	7.55	0
3	8636	7.56	0
3	8648	7.57	0
3	8659	7.58	0
3	8671	7.59	0
3	8682	7.6	0
3	8693	7.61	0
3	8704	7.62	0
3	8715	7.63	0
3	8726	7.64	0
3	8737	7.65	0
3	8748	7.66	0
3	8760	7.67	0
3	8771	7.68	0
3	8782	7.69	0
3	8793	7.7	0
3	8804	7.71	0
3	8815	7.72	0
3	8826	7.73	0
3	8837	7.74	0
3	8848	7.75	0
3	8859	7.76	0
3	8870	7.77	0
3	8882	7.78	0
3	8893	7.79	0
3	8904	7.8	0
3	8915	7.81	0
3	8926	7.82	0
3	8937	7.83	0
3	8948	7.84	0
3	8959	7.85	0
3	8970	7.86	0
3	8981	7.87	0
3	8992	7.88	0
3	9003	7.89	0
3	9015	7.9	0
3	9026	7.91	0
3	9037	7.92	0
3	9049	7.93	0
3	9061	7.94	0
3	9073	7.95	0
3	9085	7.96	0
3	9096	7.97	0
3	9107	7.98	0
3	9118	7.99	0
3	9129	8	0
3	9141	8.01	0
3	9153	8.02	0
3	9164	8.03	0
3	9175	8.04	0
3	9186	8.05	0
3	9197	8.06	0
3	9208	8.07	0
3	9220	8.08	0
3	9231	8.09	0
3	9243	8.1	0
3	9254	8.11	0
3	9266	8.12	0
3	9277	8.13	0
3	9289	8.14	0
3	9301	8.15	0
3	9312	8.16	0
3	9324	8.17	0
3	9335	8.18	0
3	9346	8.19	0
3	9357	8.2	0
3	9368	8.21	0
3	9379	8.22	0
3	9390	8.23	0
3	9401	8.24	0
3	9412	8.25	0
3	9423	8.26	0
3	9434	8.27	0
3	9445	8.28	0
3	9458	8.29	0
3	9471	8.3	0
3	9482	8.31	0
3	9493	8.32	0
3	9504	8.33	0
3	9515	8.34	0
3	9527	8.35	0
3	9538	8.36	0
3	9550	8.37	0
3	9561	8.38	0
3	9572	8.39	0
3	9584	8.4	0
3	9595	8.41	0
3	9606	8.42	0
3	9617	8.43	0
3	9629	8.44	0
3	9641	8.45	0
3	9653	8.46	0
3	9664	8.47	0
3	9675	8.48	0
3	9687	8.49	0
3	9698	8.5	0
3	9710	8.51	0
3	9721	8.52	0
3	9732	8.53	0
3	9744	8.54	0
3	9756	8.55	0
3	9767	8.56	0
3	9778	8.57	0
3	9792	8.58	0
3	9803	8.59	0
3	9815	8.6	0
3	9826	8.61	0
3	9837	8.62	0
3	9848	8.63	0
3	9859	8.64	0
3	9870	8.65	0
3	9881	8.66	0
3	9892	8.67	0
3	9904	8.68	0
3	9915	8.69	0
3	9927	8.7	0
3	9939	8.71	0
3	9950	8.72	0
3	9962	8.73	0
3	9973	8.74	0
3	9985	8.75	0
3	9998	8.76	0
3	10010	8.77	0
3	10022	8.78	0
3	10033	8.79	0
3	10044	8.8	0
3	10056	8.81	0
3	10067	8.82	0
3	10078	8.83	0
3	10090	8.84	0
3	10101	8.85	0
3	10112	8.86	0
3	10125	8.87	0
3	10136	8.88	0
3	10148	8.89	0
3	10161	8.9	0
3	10172	8.91	0
3	10183	8.92	0
3	10194	8.93	0
3	10206	8.94	0
3	10218	8.95	0
3	10229	8.96	0
3	10241	8.97	0
3	10252	8.98	0
3	10264	8.99	0
3	10275	9	0
3	10287	9.01	0
3	10299	9.02	0
3	10310	9.03	0
3	10321	9.04	0
3	10332	9.05	0
3	10344	9.06	0
3	10355	9.07	0
3	10368	9.08	0
3	10379	9.09	0
3	10390	9.1	0
3	10401	9.11	0
3	10413	9.12	0
3	10424	9.13	0
3	10435	9.14	0
3	10447	9.15	0
3	10458	9.16	0
3	10470	9.17	0
3	10481	9.18	0
3	10492	9.19	0
3	10503	9.2	0
3	10515	9.21	0
3	10526	9.22	0
3	10537	9.23	0
3	10548	9.24	0
3	10559	9.25	0
3	10570	9.26	0
3	10581	9.27	0
3	10592	9.28	0
3	10603	9.29	0
3	10614	9.3	0
3	10625	9.31	0
3	10637	9.32	0
3	10648	9.33	0
3	10663	9.34	0
3	10674	9.35	0
3	10685	9.36	0
3	10696	9.37	0
3	10707	9.38	0
3	10719	9.39	0
3	10730	9.4	0
3	10741	9.41	0
3	10752	9.42	0
3	10763	9.43	0
3	10774	9.44	0
3	10785	9.45	0
3	10798	9.46	0
3	10809	9.47	0
3	10820	9.48	0
3	10831	9.49	0
3	10843	9.5	0
3	10854	9.51	0
3	10865	9.52	0
3	10876	9.53	0
3	10887	9.54	0
3	10898	9.55	0
3	10909	9.56	0
3	10920	9.57	0
3	10931	9.58	0
3	10943	9.59	0
3	10956	9.6	0
3	10968	9.61	0
3	10980	9.62	0
3	10991	9.63	0
3	11002	9.64	0
3	11015	9.65	0
3	11026	9.66	0
3	11037	9.67	0
3	11049	9.68	0
3	11061	9.69	0
3	11072	9.7	0
3	11083	9.71	0
3	11094	9.72	0
3	11105	9.73	0
3	11116	9.74	0
3	11127	9.75	0
3	11138	9.76	0
3	11149	9.77	0
3	11162	9.78	0
3	11173	9.79	0
3	11184	9.8	0
3	11196	9.81	0
3	11208	9.82	0
3	11220	9.83	0
3	11231	9.84	0
3	11243	9.85	0
3	11254	9.86	0
3	11265	9.87	0
3	11278	9.88	0
3	11289	9.89	0
3	11300	9.9	0
3	11311	9.91	0
3	11323	9.92	0
3	11335	9.93	0
3	11347	9.94	0
3	11360	9.95	0
3	11372	9.96	0
3	11383	9.97	0
3	11394	9.98	0
3	11405	9.99	0
3	11416	10	0
4	12	0.01	299
4	24	0.02	63
4	35	0.03	28
4	46	0.04	0
4	57	0.05	0
4	68	0.06	0
4	80	0.07	0
4	91	0.08	45
4	102	0.09	0
4	115	0.1	0
4	126	0.11	114
4	138	0.12	0
4	149	0.13	31
4	161	0.14	0
4	175	0.15	19
4	187	0.16	115
4	198	0.17	2
4	209	0.18	0
4	220	0.19	0
4	231	0.2	0
4	242	0.21	0
4	255	0.22	0
4	266	0.23	23
4	277	0.24	0
4	288	0.25	0
4	299	0.26	0
4	311	0.27	0
4	323	0.28	59
4	334	0.29	1
4	345	0.3	0
4	356	0.31	0
4	367	0.32	0
4	380	0.33	0
4	392	0.34	42
4	403	0.35	52
4	415	0.36	0
4	426	0.37	28
4	439	0.38	0
4	450	0.39	35
4	461	0.4	0
4	472	0.41	0
4	483	0.42	0
4	494	0.43	0
4	505	0.44	0
4	518	0.45	0
4	530	0.46	108
4	541	0.47	20
4	552	0.48	0
4	563	0.49	0
4	575	0.5	0
4	586	0.51	19
4	598	0.52	0
4	609	0.53	8
4	620	0.54	0
4	631	0.55	0
4	642	0.56	0
4	653	0.57	0
4	664	0.58	0
4	675	0.59	0
4	686	0.6	0
4	698	0.61	0
4	709	0.62	31
4	720	0.63	0
4	732	0.64	0
4	743	0.65	63
4	755	0.66	0
4	767	0.67	12
4	780	0.68	68
4	791	0.69	122
4	802	0.7	0
4	813	0.71	0
4	824	0.72	0
4	836	0.73	0
4	848	0.74	4
4	860	0.75	28
4	871	0.76	30
4	882	0.77	0
4	893	0.78	0
4	904	0.79	0
4	915	0.8	0
4	927	0.81	0
4	938	0.82	34
4	949	0.83	0
4	960	0.84	0
4	971	0.85	0
4	982	0.86	0
4	994	0.87	0
4	1005	0.88	8
4	1016	0.89	0
4	1027	0.9	0
4	1039	0.91	0
4	1051	0.92	17
4	1062	0.93	15
4	1073	0.94	0
4	1084	0.95	0
4	1097	0.96	0
4	1108	0.97	42
4	1119	0.98	0
4	1130	0.99	0
4	1141	1	0
4	1152	1.01	0
4	1163	1.02	0
4	1175	1.03	0
4	1186	1.04	39
4	1198	1.05	0
4	1210	1.06	48
4	1221	1.07	17
4	1232	1.08	0
4	1243	1.09	0
4	1254	1.1	0
4	1266	1.11	0
4	1277	1.12	6
4	1288	1.13	0
4	1299	1.14	0
4	1310	1.15	0
4	1321	1.16	0
4	1332	1.17	0
4	1343	1.18	0
4	1354	1.19	0
4	1366	1.2	0
4	1377	1.21	35
4	1389	1.22	0
4	1401	1.23	46
4	1412	1.24	60
4	1424	1.25	0
4	1435	1.26	25
4	1447	1.27	0
4	1458	1.28	14
4	1469	1.29	0
4	1481	1.3	0
4	1494	1.31	32
4	1505	1.32	78
4	1518	1.33	0
4	1529	1.34	21
4	1540	1.35	0
4	1551	1.36	0
4	1563	1.37	0
4	1574	1.38	48
4	1585	1.39	0
4	1596	1.4	0
4	1607	1.41	0
4	1618	1.42	0
4	1630	1.43	0
4	1641	1.44	1
4	1652	1.45	0
4	1663	1.46	0
4	1674	1.47	0
4	1687	1.48	0
4	1699	1.49	25
4	1711	1.5	65
4	1723	1.51	9
4	1734	1.52	45
4	1745	1.53	0
4	1757	1.54	0
4	1768	1.55	38
4	1780	1.56	0
4	1792	1.57	6
4	1804	1.58	23
4	1816	1.59	53
4	1828	1.6	70
4	1839	1.61	61
4	1850	1.62	0
4	1861	1.63	0
4	1874	1.64	0
4	1885	1.65	101
4	1897	1.66	0
4	1909	1.67	36
4	1922	1.68	21
4	1934	1.69	123
4	1945	1.7	33
4	1956	1.71	0
4	1968	1.72	0
4	1979	1.73	14
4	1990	1.74	0
4	2001	1.75	0
4	2012	1.76	0
4	2023	1.77	0
4	2035	1.78	0
4	2047	1.79	19
4	2058	1.8	53
4	2070	1.81	0
4	2082	1.82	23
4	2093	1.83	59
4	2104	1.84	0
4	2115	1.85	0
4	2126	1.86	0
4	2139	1.87	0
4	2150	1.88	55
4	2161	1.89	0
4	2173	1.9	0
4	2184	1.91	37
4	2196	1.92	0
4	2207	1.93	42
4	2218	1.94	0
4	2229	1.95	0
4	2241	1.96	0
4	2253	1.97	21
4	2264	1.98	33
4	2276	1.99	0
4	2287	2	11
4	2299	2.01	0
4	2310	2.02	32
4	2321	2.03	0
4	2333	2.04	0
4	2344	2.05	16
4	2357	2.06	0
4	2368	2.07	94
4	2379	2.08	0
4	2390	2.09	0
4	2401	2.1	0
4	2412	2.11	0
4	2423	2.12	0
4	2434	2.13	0
4	2446	2.14	0
4	2458	2.15	10
4	2469	2.16	64
4	2480	2.17	0
4	2492	2.18	0
4	2504	2.19	15
4	2515	2.2	67
4	2526	2.21	0
4	2537	2.22	0
4	2548	2.23	0
4	2559	2.24	0
4	2570	2.25	0
4	2581	2.26	0
4	2592	2.27	0
4	2604	2.28	0
4	2615	2.29	58
4	2626	2.3	0
4	2637	2.31	0
4	2650	2.32	0
4	2661	2.33	85
4	2672	2.34	0
4	2683	2.35	0
4	2695	2.36	0
4	2706	2.37	9
4	2718	2.38	0
4	2729	2.39	9
4	2741	2.4	0
4	2752	2.41	72
4	2763	2.42	0
4	2774	2.43	0
4	2788	2.44	0
4	2800	2.45	94
4	2812	2.46	73
4	2823	2.47	75
4	2834	2.48	0
4	2845	2.49	0
4	2856	2.5	0
4	2868	2.51	0
4	2880	2.52	73
4	2893	2.53	33
4	2904	2.54	86
4	2915	2.55	0
4	2926	2.56	0
4	2938	2.57	0
4	2949	2.58	36
4	2962	2.59	0
4	2973	2.6	107
4	2984	2.61	0
4	2995	2.62	0
4	3006	2.63	0
4	3017	2.64	0
4	3028	2.65	0
4	3039	2.66	0
4	3050	2.67	0
4	3061	2.68	0
4	3072	2.69	0
4	3084	2.7	0
4	3096	2.71	1
4	3107	2.72	3
4	3118	2.73	0
4	3129	2.74	0
4	3140	2.75	0
4	3152	2.76	0
4	3164	2.77	3
4	3176	2.78	66
4	3187	2.79	46
4	3198	2.8	0
4	3211	2.81	0
4	3222	2.82	26
4	3234	2.83	0
4	3245	2.84	51
4	3256	2.85	0
4	3267	2.86	0
4	3279	2.87	0
4	3290	2.88	20
4	3302	2.89	0
4	3314	2.9	55
4	3325	2.91	25
4	3336	2.92	0
4	3348	2.93	0
4	3359	2.94	65
4	3370	2.95	0
4	3381	2.96	0
4	3393	2.97	0
4	3404	2.98	74
4	3416	2.99	0
4	3427	3	2
4	3438	3.01	0
4	3449	3.02	0
4	3462	3.03	0
4	3474	3.04	75
4	3485	3.05	24
4	3496	3.06	0
4	3507	3.07	0
4	3519	3.08	0
4	3530	3.09	40
4	3541	3.1	0
4	3552	3.11	0
4	3563	3.12	0
4	3574	3.13	0
4	3586	3.14	0
4	3597	3.15	69
4	3608	3.16	0
4	3619	3.17	0
4	3630	3.18	0
4	3641	3.19	0
4	3653	3.2	0
4	3664	3.21	37
4	3675	3.22	0
4	3686	3.23	0
4	3697	3.24	0
4	3708	3.25	0
4	3719	3.26	0
4	3730	3.27	0
4	3741	3.28	0
4	3752	3.29	0
4	3764	3.3	0
4	3775	3.31	70
4	3786	3.32	0
4	3797	3.33	0
4	3809	3.34	0
4	3821	3.35	37
4	3832	3.36	19
4	3844	3.37	0
4	3856	3.38	35
4	3867	3.39	31
4	3879	3.4	0
4	3890	3.41	36
4	3902	3.42	0
4	3913	3.43	30
4	3925	3.44	0
4	3936	3.45	2
4	3947	3.46	0
4	3958	3.47	0
4	3970	3.48	0
4	3981	3.49	21
4	3993	3.5	0
4	4004	3.51	1
4	4015	3.52	0
4	4028	3.53	0
4	4039	3.54	87
4	4050	3.55	0
4	4062	3.56	0
4	4073	3.57	31
4	4084	3.58	0
4	4095	3.59	0
4	4107	3.6	0
4	4118	3.61	41
4	4129	3.62	0
4	4141	3.63	0
4	4152	3.64	75
4	4165	3.65	0
4	4176	3.66	124
4	4188	3.67	0
4	4199	3.68	20
4	4210	3.69	0
4	4222	3.7	0
4	4233	3.71	47
4	4244	3.72	0
4	4256	3.73	0
4	4270	3.74	27
4	4281	3.75	141
4	4293	3.76	0
4	4306	3.77	29
4	4317	3.78	24
4	4328	3.79	0
4	4339	3.8	0
4	4350	3.81	0
4	4363	3.82	0
4	4374	3.83	97
4	4386	3.84	0
4	4397	3.85	46
4	4408	3.86	0
4	4420	3.87	0
4	4431	3.88	6
4	4443	3.89	0
4	4455	3.9	27
4	4466	3.91	42
4	4477	3.92	0
4	4488	3.93	0
4	4500	3.94	0
4	4511	3.95	29
4	4522	3.96	0
4	4534	3.97	0
4	4545	3.98	36
4	4556	3.99	0
4	4567	4	0
4	4578	4.01	0
4	4590	4.02	0
4	4601	4.03	56
4	4612	4.04	0
4	4625	4.05	0
4	4636	4.06	28
4	4647	4.07	0
4	4658	4.08	0
4	4669	4.09	0
4	4681	4.1	0
4	4692	4.11	4
4	4703	4.12	0
4	4714	4.13	0
4	4725	4.14	0
4	4738	4.15	0
4	4749	4.16	58
4	4760	4.17	0
4	4771	4.18	0
4	4782	4.19	0
4	4793	4.2	0
4	4804	4.21	0
4	4817	4.22	0
4	4828	4.23	58
4	4839	4.24	0
4	4850	4.25	0
4	4861	4.26	0
4	4872	4.27	0
4	4884	4.28	0
4	4897	4.29	72
4	4909	4.3	101
4	4920	4.31	38
4	4932	4.32	0
4	4943	4.33	2
4	4955	4.34	0
4	4966	4.35	31
4	4977	4.36	0
4	4988	4.37	0
4	4999	4.38	0
4	5010	4.39	0
4	5023	4.4	0
4	5035	4.41	39
4	5047	4.42	8
4	5058	4.43	36
4	5069	4.44	0
4	5081	4.45	0
4	5092	4.46	10
4	5103	4.47	0
4	5114	4.48	0
4	5126	4.49	0
4	5137	4.5	8
4	5148	4.51	0
4	5159	4.52	0
4	5170	4.53	0
4	5181	4.54	0
4	5194	4.55	0
4	5206	4.56	87
4	5218	4.57	15
4	5229	4.58	5
4	5241	4.59	0
4	5252	4.6	75
4	5264	4.61	0
4	5276	4.62	69
4	5287	4.63	68
4	5298	4.64	0
4	5309	4.65	0
4	5320	4.66	0
4	5331	4.67	0
4	5342	4.68	0
4	5353	4.69	0
4	5364	4.7	0
4	5375	4.71	0
4	5386	4.72	0
4	5398	4.73	0
4	5409	4.74	18
4	5420	4.75	0
4	5431	4.76	0
4	5443	4.77	0
4	5455	4.78	12
4	5466	4.79	31
4	5477	4.8	0
4	5490	4.81	0
4	5501	4.82	36
4	5514	4.83	0
4	5525	4.84	114
4	5536	4.85	0
4	5547	4.86	0
4	5558	4.87	0
4	5569	4.88	0
4	5581	4.89	0
4	5592	4.9	53
4	5603	4.91	0
4	5615	4.92	0
4	5627	4.93	75
4	5640	4.94	26
4	5654	4.95	42
4	5665	4.96	123
4	5676	4.97	0
4	5687	4.98	0
4	5698	4.99	0
4	5710	5	0
4	5721	5.01	59
4	5732	5.02	0
4	5743	5.03	0
4	5754	5.04	0
4	5765	5.05	0
4	5777	5.06	0
4	5788	5.07	45
4	5799	5.08	0
4	5810	5.09	0
4	5821	5.1	0
4	5832	5.11	0
4	5843	5.12	0
4	5856	5.13	0
4	5867	5.14	32
4	5878	5.15	0
4	5889	5.16	0
4	5901	5.17	0
4	5915	5.18	58
4	5926	5.19	113
4	5937	5.2	0
4	5948	5.21	0
4	5960	5.22	0
4	5971	5.23	52
4	5983	5.24	0
4	5994	5.25	17
4	6005	5.26	0
4	6016	5.27	0
4	6028	5.28	0
4	6040	5.29	27
4	6052	5.3	31
4	6063	5.31	15
4	6074	5.32	0
4	6085	5.33	0
4	6096	5.34	0
4	6107	5.35	0
4	6119	5.36	0
4	6131	5.37	9
4	6143	5.38	58
4	6154	5.39	41
4	6166	5.4	0
4	6178	5.41	60
4	6189	5.42	59
4	6200	5.43	0
4	6211	5.44	0
4	6223	5.45	0
4	6234	5.46	11
4	6246	5.47	0
4	6257	5.48	7
4	6268	5.49	0
4	6279	5.5	0
4	6291	5.51	0
4	6302	5.52	59
4	6314	5.53	0
4	6325	5.54	74
4	6337	5.55	0
4	6348	5.56	55
4	6359	5.57	0
4	6370	5.58	0
4	6381	5.59	0
4	6393	5.6	0
4	6405	5.61	34
4	6417	5.62	25
4	6429	5.63	19
4	6440	5.64	21
4	6451	5.65	0
4	6462	5.66	0
4	6474	5.67	0
4	6486	5.68	47
4	6497	5.69	6
4	6508	5.7	0
4	6519	5.71	0
4	6532	5.72	0
4	6543	5.73	71
4	6554	5.74	0
4	6566	5.75	0
4	6577	5.76	39
4	6588	5.77	0
4	6599	5.78	0
4	6611	5.79	0
4	6624	5.8	13
4	6635	5.81	8
4	6646	5.82	0
4	6658	5.83	0
4	6670	5.84	18
4	6681	5.85	12
4	6693	5.86	0
4	6704	5.87	57
4	6715	5.88	0
4	6726	5.89	0
4	6737	5.9	0
4	6748	5.91	0
4	6760	5.92	0
4	6772	5.93	27
4	6783	5.94	43
4	6794	5.95	0
4	6805	5.96	0
4	6816	5.97	0
4	6827	5.98	0
4	6839	5.99	0
4	6850	6	58
4	6863	6.01	0
4	6874	6.02	58
4	6886	6.03	0
4	6897	6.04	11
4	6909	6.05	0
4	6922	6.06	40
4	6934	6.07	49
4	6946	6.08	69
4	6957	6.09	56
4	6969	6.1	0
4	6980	6.11	32
4	6991	6.12	0
4	7002	6.13	0
4	7014	6.14	0
4	7025	6.15	27
4	7036	6.16	0
4	7047	6.17	0
4	7058	6.18	0
4	7069	6.19	0
4	7080	6.2	0
4	7093	6.21	0
4	7104	6.22	69
4	7116	6.23	0
4	7127	6.24	11
4	7138	6.25	0
4	7149	6.26	0
4	7160	6.27	0
4	7172	6.28	0
4	7183	6.29	34
4	7194	6.3	0
4	7205	6.31	0
4	7217	6.32	0
4	7228	6.33	65
4	7239	6.34	0
4	7251	6.35	0
4	7262	6.36	37
4	7273	6.37	0
4	7284	6.38	0
4	7296	6.39	0
4	7307	6.4	61
4	7318	6.41	0
4	7329	6.42	0
4	7340	6.43	0
4	7352	6.44	0
4	7363	6.45	1
4	7374	6.46	0
4	7385	6.47	0
4	7396	6.48	0
4	7407	6.49	0
4	7418	6.5	0
4	7429	6.51	0
4	7440	6.52	0
4	7452	6.53	0
4	7464	6.54	73
4	7475	6.55	25
4	7486	6.56	0
4	7498	6.57	0
4	7509	6.58	27
4	7520	6.59	0
4	7531	6.6	0
4	7542	6.61	0
4	7553	6.62	0
4	7564	6.63	0
4	7575	6.64	0
4	7586	6.65	0
4	7599	6.66	0
4	7610	6.67	36
4	7621	6.68	0
4	7632	6.69	0
4	7643	6.7	0
4	7655	6.71	0
4	7666	6.72	64
4	7677	6.73	0
4	7688	6.74	0
4	7700	6.75	0
4	7713	6.76	19
4	7725	6.77	63
4	7736	6.78	46
4	7747	6.79	0
4	7758	6.8	0
4	7770	6.81	0
4	7781	6.82	47
4	7792	6.83	0
4	7804	6.84	0
4	7817	6.85	59
4	7828	6.86	66
4	7840	6.87	0
4	7851	6.88	23
4	7862	6.89	0
4	7873	6.9	0
4	7884	6.91	0
4	7897	6.92	0
4	7909	6.93	95
4	7920	6.94	6
4	7932	6.95	0
4	7943	6.96	50
4	7954	6.97	0
4	7965	6.98	0
4	7976	6.99	0
4	7987	7	0
4	7998	7.01	0
4	8009	7.02	0
4	8020	7.03	0
4	8032	7.04	0
4	8045	7.05	59
4	8059	7.06	65
4	8070	7.07	133
4	8081	7.08	0
4	8093	7.09	0
4	8105	7.1	19
4	8116	7.11	37
4	8127	7.12	0
4	8138	7.13	0
4	8149	7.14	0
4	8160	7.15	0
4	8171	7.16	0
4	8183	7.17	0
4	8194	7.18	37
4	8205	7.19	0
4	8217	7.2	0
4	8228	7.21	68
4	8240	7.22	0
4	8251	7.23	10
4	8263	7.24	0
4	8274	7.25	48
4	8286	7.26	0
4	8297	7.27	1
4	8309	7.28	0
4	8322	7.29	73
4	8336	7.3	91
4	8347	7.31	104
4	8358	7.32	0
4	8369	7.33	0
4	8381	7.34	0
4	8393	7.35	14
4	8405	7.36	74
4	8416	7.37	70
4	8427	7.38	0
4	8440	7.39	0
4	8451	7.4	99
4	8462	7.41	0
4	8473	7.42	0
4	8484	7.43	0
4	8495	7.44	0
4	8509	7.45	0
4	8521	7.46	121
4	8534	7.47	59
4	8545	7.48	121
4	8556	7.49	0
4	8567	7.5	0
4	8578	7.51	0
4	8590	7.52	0
4	8601	7.53	12
4	8613	7.54	0
4	8624	7.55	66
4	8636	7.56	0
4	8648	7.57	22
4	8659	7.58	9
4	8671	7.59	0
4	8682	7.6	32
4	8693	7.61	0
4	8704	7.62	0
4	8715	7.63	0
4	8726	7.64	0
4	8737	7.65	0
4	8748	7.66	0
4	8760	7.67	0
4	8771	7.68	48
4	8782	7.69	0
4	8793	7.7	0
4	8804	7.71	0
4	8815	7.72	0
4	8826	7.73	0
4	8837	7.74	0
4	8848	7.75	0
4	8859	7.76	0
4	8870	7.77	0
4	8882	7.78	0
4	8893	7.79	67
4	8904	7.8	0
4	8915	7.81	0
4	8926	7.82	0
4	8937	7.83	0
4	8948	7.84	0
4	8959	7.85	0
4	8970	7.86	0
4	8981	7.87	0
4	8992	7.88	0
4	9003	7.89	0
4	9015	7.9	0
4	9026	7.91	21
4	9037	7.92	0
4	9049	7.93	0
4	9061	7.94	60
4	9073	7.95	58
4	9085	7.96	34
4	9096	7.97	54
4	9107	7.98	0
4	9118	7.99	0
4	9129	8	0
4	9141	8.01	0
4	9153	8.02	2
4	9164	8.03	71
4	9175	8.04	0
4	9186	8.05	0
4	9197	8.06	0
4	9208	8.07	0
4	9220	8.08	0
4	9231	8.09	18
4	9243	8.1	0
4	9254	8.11	27
4	9266	8.12	0
4	9277	8.13	33
4	9289	8.14	0
4	9301	8.15	32
4	9312	8.16	50
4	9324	8.17	0
4	9335	8.18	70
4	9346	8.19	0
4	9357	8.2	0
4	9368	8.21	0
4	9379	8.22	0
4	9390	8.23	0
4	9401	8.24	0
4	9412	8.25	0
4	9423	8.26	0
4	9434	8.27	0
4	9445	8.28	0
4	9458	8.29	0
4	9471	8.3	81
4	9482	8.31	83
4	9493	8.32	0
4	9504	8.33	0
4	9515	8.34	0
4	9527	8.35	0
4	9538	8.36	29
4	9550	8.37	0
4	9561	8.38	18
4	9572	8.39	0
4	9584	8.4	0
4	9595	8.41	17
4	9606	8.42	0
4	9617	8.43	0
4	9629	8.44	0
4	9641	8.45	74
4	9653	8.46	55
4	9664	8.47	46
4	9675	8.48	0
4	9687	8.49	0
4	9698	8.5	35
4	9710	8.51	0
4	9721	8.52	68
4	9732	8.53	0
4	9744	8.54	0
4	9756	8.55	70
4	9767	8.56	71
4	9778	8.57	0
4	9792	8.58	0
4	9803	8.59	83
4	9815	8.6	0
4	9826	8.61	30
4	9837	8.62	0
4	9848	8.63	0
4	9859	8.64	0
4	9870	8.65	0
4	9881	8.66	0
4	9892	8.67	0
4	9904	8.68	0
4	9915	8.69	48
4	9927	8.7	0
4	9939	8.71	56
4	9950	8.72	22
4	9962	8.73	0
4	9973	8.74	71
4	9985	8.75	0
4	9998	8.76	17
4	10010	8.77	16
4	10022	8.78	143
4	10033	8.79	42
4	10044	8.8	0
4	10056	8.81	0
4	10067	8.82	14
4	10078	8.83	0
4	10090	8.84	0
4	10101	8.85	62
4	10112	8.86	0
4	10125	8.87	0
4	10136	8.88	48
4	10148	8.89	0
4	10161	8.9	66
4	10172	8.91	53
4	10183	8.92	0
4	10194	8.93	0
4	10206	8.94	0
4	10218	8.95	61
4	10229	8.96	17
4	10241	8.97	0
4	10252	8.98	12
4	10264	8.99	0
4	10275	9	2
4	10287	9.01	0
4	10299	9.02	58
4	10310	9.03	10
4	10321	9.04	0
4	10332	9.05	0
4	10344	9.06	0
4	10355	9.07	51
4	10368	9.08	0
4	10379	9.09	79
4	10390	9.1	0
4	10401	9.11	0
4	10413	9.12	0
4	10424	9.13	66
4	10435	9.14	0
4	10447	9.15	0
4	10458	9.16	31
4	10470	9.17	0
4	10481	9.18	70
4	10492	9.19	0
4	10503	9.2	0
4	10515	9.21	0
4	10526	9.22	55
4	10537	9.23	0
4	10548	9.24	0
4	10559	9.25	0
4	10570	9.26	0
4	10581	9.27	0
4	10592	9.28	0
4	10603	9.29	0
4	10614	9.3	0
4	10625	9.31	0
4	10637	9.32	0
4	10648	9.33	47
4	10663	9.34	0
4	10674	9.35	109
4	10685	9.36	43
4	10696	9.37	0
4	10707	9.38	0
4	10719	9.39	0
4	10730	9.4	35
4	10741	9.41	0
4	10752	9.42	0
4	10763	9.43	0
4	10774	9.44	0
4	10785	9.45	0
4	10798	9.46	0
4	10809	9.47	63
4	10820	9.48	0
4	10831	9.49	0
4	10843	9.5	0
4	10854	9.51	57
4	10865	9.52	0
4	10876	9.53	0
4	10887	9.54	0
4	10898	9.55	0
4	10909	9.56	0
4	10920	9.57	0
4	10931	9.58	0
4	10943	9.59	0
4	10956	9.6	8
4	10968	9.61	111
4	10980	9.62	52
4	10991	9.63	25
4	11002	9.64	0
4	11015	9.65	0
4	11026	9.66	53
4	11037	9.67	0
4	11049	9.68	0
4	11061	9.69	65
4	11072	9.7	50
4	11083	9.71	0
4	11094	9.72	0
4	11105	9.73	0
4	11116	9.74	0
4	11127	9.75	0
4	11138	9.76	0
4	11149	9.77	0
4	11162	9.78	0
4	11173	9.79	8
4	11184	9.8	0
4	11196	9.81	0
4	11208	9.82	27
4	11220	9.83	5
4	11231	9.84	13
4	11243	9.85	0
4	11254	9.86	64
4	11265	9.87	0
4	11278	9.88	0
4	11289	9.89	125
4	11300	9.9	0
4	11311	9.91	0
4	11323	9.92	0
4	11335	9.93	52
4	11347	9.94	3
4	11360	9.95	20
4	11372	9.96	75
4	11383	9.97	57
4	11394	9.98	0
4	11405	9.99	0
4	11416	10	0
5	12	0.01	0
5	24	0.02	0
5	35	0.03	0
5	46	0.04	0
5	57	0.05	0
5	68	0.06	0
5	80	0.07	0
5	91	0.08	0
5	102	0.09	0
5	115	0.1	0
5	126	0.11	0
5	138	0.12	0
5	149	0.13	0
5	161	0.14	0
5	175	0.15	0
5	187	0.16	0
5	198	0.17	0
5	209	0.18	0
5	220	0.19	0
5	231	0.2	0
5	242	0.21	0
5	255	0.22	0
5	266	0.23	0
5	277	0.24	0
5	288	0.25	0
5	299	0.26	0
5	311	0.27	0
5	323	0.28	0
5	334	0.29	0
5	345	0.3	0
5	356	0.31	0
5	367	0.32	0
5	380	0.33	0
5	392	0.34	0
5	403	0.35	0
5	415	0.36	0
5	426	0.37	0
5	439	0.38	0
5	450	0.39	0
5	461	0.4	0
5	472	0.41	0
5	483	0.42	0
5	494	0.43	0
5	505	0.44	0
5	518	0.45	0
5	530	0.46	0
5	541	0.47	0
5	552	0.48	0
5	563	0.49	0
5	575	0.5	0
5	586	0.51	0
5	598	0.52	0
5	609	0.53	0
5	620	0.54	0
5	631	0.55	0
5	642	0.56	0
5	653	0.57	0
5	664	0.58	0
5	675	0.59	0
5	686	0.6	0
5	698	0.61	0
5	709	0.62	0
5	720	0.63	0
5	732	0.64	0
5	743	0.65	0
5	755	0.66	0
5	767	0.67	0
5	780	0.68	0
5	791	0.69	0
5	802	0.7	0
5	813	0.71	0
5	824	0.72	0
5	836	0.73	0
5	848	0.74	0
5	860	0.75	0
5	871	0.76	0
5	882	0.77	0
5	893	0.78	0
5	904	0.79	0
5	915	0.8	0
5	927	0.81	0
5	938	0.82	0
5	949	0.83	0
5	960	0.84	0
5	971	0.85	0
5	982	0.86	0
5	994	0.87	0
5	1005	0.88	0
5	1016	0.89	0
5	1027	0.9	0
5	1039	0.91	0
5	1051	0.92	0
5	1062	0.93	0
5	1073	0.94	0
5	1084	0.95	0
5	1097	0.96	0
5	1108	0.97	0
5	1119	0.98	0
5	1130	0.99	0
5	1141	1	0
5	1152	1.01	0
5	1163	1.02	0
5	1175	1.03	0
5	1186	1.04	0
5	1198	1.05	0
5	1210	1.06	0
5	1221	1.07	0
5	1232	1.08	0
5	1243	1.09	0
5	1254	1.1	0
5	1266	1.11	0
5	1277	1.12	0
5	1288	1.13	0
5	1299	1.14	0
5	1310	1.15	0
5	1321	1.16	0
5	1332	1.17	0
5	1343	1.18	0
5	1354	1.19	0
5	1366	1.2	0
5	1377	1.21	0
5	1389	1.22	0
5	1401	1.23	0
5	1412	1.24	0
5	1424	1.25	0
5	1435	1.26	0
5	1447	1.27	0
5	1458	1.28	0
5	1469	1.29	0
5	1481	1.3	0
5	1494	1.31	0
5	1505	1.32	0
5	1518	1.33	0
5	1529	1.34	0
5	1540	1.35	0
5	1551	1.36	0
5	1563	1.37	0
5	1574	1.38	0
5	1585	1.39	0
5	1596	1.4	0
5	1607	1.41	0
5	1618	1.42	0
5	1630	1.43	0
5	1641	1.44	0
5	1652	1.45	0
5	1663	1.46	0
5	1674	1.47	0
5	1687	1.48	0
5	1699	1.49	0
5	1711	1.5	0
5	1723	1.51	0
5	1734	1.52	0
5	1745	1.53	0
5	1757	1.54	0
5	1768	1.55	0
5	1780	1.56	0
5	1792	1.57	0
5	1804	1.58	0
5	1816	1.59	0
5	1828	1.6	0
5	1839	1.61	0
5	1850	1.62	0
5	1861	1.63	0
5	1874	1.64	0
5	1885	1.65	0
5	1897	1.66	0
5	1909	1.67	0
5	1922	1.68	0
5	1934	1.69	0
5	1945	1.7	0
5	1956	1.71	0
5	1968	1.72	0
5	1979	1.73	0
5	1990	1.74	0
5	2001	1.75	0
5	2012	1.76	0
5	2023	1.77	0
5	2035	1.78	0
5	2047	1.79	0
5	2058	1.8	0
5	2070	1.81	0
5	2082	1.82	0
5	2093	1.83	0
5	2104	1.84	0
5	2115	1.85	0
5	2126	1.86	0
5	2139	1.87	0
5	2150	1.88	0
5	2161	1.89	0
5	2173	1.9	0
5	2184	1.91	0
5	2196	1.92	0
5	2207	1.93	0
5	2218	1.94	0
5	2229	1.95	0
5	2241	1.96	0
5	2253	1.97	0
5	2264	1.98	0
5	2276	1.99	0
5	2287	2	0
5	2299	2.01	0
5	2310	2.02	0
5	2321	2.03	0
5	2333	2.04	0
5	2344	2.05	0
5	2357	2.06	0
5	2368	2.07	0
5	2379	2.08	0
5	2390	2.09	0
5	2401	2.1	0
5	2412	2.11	0
5	2423	2.12	0
5	2434	2.13	0
5	2446	2.14	0
5	2458	2.15	0
5	2469	2.16	0
5	2480	2.17	0
5	2492	2.18	0
5	2504	2.19	0
5	2515	2.2	0
5	2526	2.21	0
5	2537	2.22	0
5	2548	2.23	0
5	2559	2.24	0
5	2570	2.25	0
5	2581	2.26	0
5	2592	2.27	0
5	2604	2.28	0
5	2615	2.29	0
5	2626	2.3	0
5	2637	2.31	0
5	2650	2.32	0
5	2661	2.33	0
5	2672	2.34	0
5	2683	2.35	0
5	2695	2.36	0
5	2706	2.37	0
5	2718	2.38	0
5	2729	2.39	0
5	2741	2.4	0
5	2752	2.41	0
5	2763	2.42	0
5	2774	2.43	0
5	2788	2.44	0
5	2800	2.45	0
5	2812	2.46	0
5	2823	2.47	0
5	2834	2.48	0
5	2845	2.49	0
5	2856	2.5	0
5	2868	2.51	0
5	2880	2.52	0
5	2893	2.53	0
5	2904	2.54	0
5	2915	2.55	0
5	2926	2.56	0
5	2938	2.57	0
5	2949	2.58	0
5	2962	2.59	0
5	2973	2.6	0
5	2984	2.61	0
5	2995	2.62	0
5	3006	2.63	0
5	3017	2.64	0
5	3028	2.65	0
5	3039	2.66	0
5	3050	2.67	0
5	3061	2.68	0
5	3072	2.69	0
5	3084	2.7	0
5	3096	2.71	0
5	3107	2.72	0
5	3118	2.73	0
5	3129	2.74	0
5	3140	2.75	0
5	3152	2.76	0
5	3164	2.77	0
5	3176	2.78	0
5	3187	2.79	0
5	3198	2.8	0
5	3211	2.81	0
5	3222	2.82	0
5	3234	2.83	0
5	3245	2.84	0
5	3256	2.85	0
5	3267	2.86	0
5	3279	2.87	0
5	3290	2.88	0
5	3302	2.89	0
5	3314	2.9	0
5	3325	2.91	0
5	3336	2.92	0
5	3348	2.93	0
5	3359	2.94	0
5	3370	2.95	0
5	3381	2.96	0
5	3393	2.97	0
5	3404	2.98	0
5	3416	2.99	0
5	3427	3	0
5	3438	3.01	0
5	3449	3.02	0
5	3462	3.03	0
5	3474	3.04	0
5	3485	3.05	0
5	3496	3.06	0
5	3507	3.07	0
5	3519	3.08	0
5	3530	3.09	0
5	3541	3.1	0
5	3552	3.11	0
5	3563	3.12	0
5	3574	3.13	0
5	3586	3.14	0
5	3597	3.15	0
5	3608	3.16	0
5	3619	3.17	0
5	3630	3.18	0
5	3641	3.19	0
5	3653	3.2	0
5	3664	3.21	0
5	3675	3.22	0
5	3686	3.23	0
5	3697	3.24	0
5	3708	3.25	0
5	3719	3.26	0
5	3730	3.27	0
5	3741	3.28	0
5	3752	3.29	0
5	3764	3.3	0
5	3775	3.31	0
5	3786	3.32	0
5	3797	3.33	0
5	3809	3.34	0
5	3821	3.35	0
5	3832	3.36	0
5	3844	3.37	0
5	3856	3.38	0
5	3867	3.39	0
5	3879	3.4	0
5	3890	3.41	0
5	3902	3.42	0
5	3913	3.43	0
5	3925	3.44	0
5	3936	3.45	0
5	3947	3.46	0
5	3958	3.47	0
5	3970	3.48	0
5	3981	3.49	0
5	3993	3.5	0
5	4004	3.51	0
5	4015	3.52	0
5	4028	3.53	0
5	4039	3.54	0
5	4050	3.55	0
5	4062	3.56	0
5	4073	3.57	0
5	4084	3.58	0
5	4095	3.59	0
5	4107	3.6	0
5	4118	3.61	0
5	4129	3.62	0
5	4141	3.63	0
5	4152	3.64	0
5	4165	3.65	0
5	4176	3.66	0
5	4188	3.67	0
5	4199	3.68	0
5	4210	3.69	0
5	4222	3.7	0
5	4233	3.71	0
5	4244	3.72	0
5	4256	3.73	0
5	4270	3.74	0
5	4281	3.75	0
5	4293	3.76	0
5	4306	3.77	0
5	4317	3.78	0
5	4328	3.79	0
5	4339	3.8	0
5	4350	3.81	0
5	4363	3.82	0
5	4374	3.83	0
5	4386	3.84	0
5	4397	3.85	0
5	4408	3.86	0
5	4420	3.87	0
5	4431	3.88	0
5	4443	3.89	0
5	4455	3.9	0
5	4466	3.91	0
5	4477	3.92	0
5	4488	3.93	0
5	4500	3.94	0
5	4511	3.95	0
5	4522	3.96	0
5	4534	3.97	0
5	4545	3.98	0
5	4556	3.99	0
5	4567	4	0
5	4578	4.01	0
5	4590	4.02	0
5	4601	4.03	0
5	4612	4.04	0
5	4625	4.05	0
5	4636	4.06	0
5	4647	4.07	0
5	4658	4.08	0
5	4669	4.09	0
5	4681	4.1	0
5	4692	4.11	0
5	4703	4.12	0
5	4714	4.13	0
5	4725	4.14	0
5	4738	4.15	0
5	4749	4.16	0
5	4760	4.17	0
5	4771	4.18	0
5	4782	4.19	0
5	4793	4.2	0
5	4804	4.21	0
5	4817	4.22	0
5	4828	4.23	0
5	4839	4.24	0
5	4850	4.25	0
5	4861	4.26	0
5	4872	4.27	0
5	4884	4.28	0
5	4897	4.29	0
5	4909	4.3	0
5	4920	4.31	0
5	4932	4.32	0
5	4943	4.33	0
5	4955	4.34	0
5	4966	4.35	0
5	4977	4.36	0
5	4988	4.37	0
5	4999	4.38	0
5	5010	4.39	0
5	5023	4.4	0
5	5035	4.41	0
5	5047	4.42	0
5	5058	4.43	0
5	5069	4.44	0
5	5081	4.45	0
5	5092	4.46	0
5	5103	4.47	0
5	5114	4.48	0
5	5126	4.49	0
5	5137	4.5	0
5	5148	4.51	0
5	5159	4.52	0
5	5170	4.53	0
5	5181	4.54	0
5	5194	4.55	0
5	5206	4.56	0
5	5218	4.57	0
5	5229	4.58	0
5	5241	4.59	0
5	5252	4.6	0
5	5264	4.61	0
5	5276	4.62	0
5	5287	4.63	0
5	5298	4.64	0
5	5309	4.65	0
5	5320	4.66	0
5	5331	4.67	0
5	5342	4.68	0
5	5353	4.69	0
5	5364	4.7	0
5	5375	4.71	0
5	5386	4.72	0
5	5398	4.73	0
5	5409	4.74	0
5	5420	4.75	0
5	5431	4.76	0
5	5443	4.77	0
5	5455	4.78	0
5	5466	4.79	0
5	5477	4.8	0
5	5490	4.81	0
5	5501	4.82	0
5	5514	4.83	0
5	5525	4.84	0
5	5536	4.85	0
5	5547	4.86	0
5	5558	4.87	0
5	5569	4.88	0
5	5581	4.89	0
5	5592	4.9	0
5	5603	4.91	0
5	5615	4.92	0
5	5627	4.93	0
5	5640	4.94	0
5	5654	4.95	0
5	5665	4.96	0
5	5676	4.97	0
5	5687	4.98	0
5	5698	4.99	0
5	5710	5	0
5	5721	5.01	0
5	5732	5.02	0
5	5743	5.03	0
5	5754	5.04	0
5	5765	5.05	0
5	5777	5.06	0
5	5788	5.07	0
5	5799	5.08	0
5	5810	5.09	0
5	5821	5.1	0
5	5832	5.11	0
5	5843	5.12	0
5	5856	5.13	0
5	5867	5.14	0
5	5878	5.15	0
5	5889	5.16	0
5	5901	5.17	0
5	5915	5.18	0
5	5926	5.19	0
5	5937	5.2	0
5	5948	5.21	0
5	5960	5.22	0
5	5971	5.23	0
5	5983	5.24	0
5	5994	5.25	0
5	6005	5.26	0
5	6016	5.27	0
5	6028	5.28	0
5	6040	5.29	0
5	6052	5.3	0
5	6063	5.31	0
5	6074	5.32	0
5	6085	5.33	0
5	6096	5.34	0
5	6107	5.35	0
5	6119	5.36	0
5	6131	5.37	0
5	6143	5.38	0
5	6154	5.39	0
5	6166	5.4	0
5	6178	5.41	0
5	6189	5.42	0
5	6200	5.43	0
5	6211	5.44	0
5	6223	5.45	0
5	6234	5.46	0
5	6246	5.47	0
5	6257	5.48	0
5	6268	5.49	0
5	6279	5.5	0
5	6291	5.51	0
5	6302	5.52	0
5	6314	5.53	0
5	6325	5.54	0
5	6337	5.55	0
5	6348	5.56	0
5	6359	5.57	0
5	6370	5.58	0
5	6381	5.59	0
5	6393	5.6	0
5	6405	5.61	0
5	6417	5.62	0
5	6429	5.63	0
5	6440	5.64	0
5	6451	5.65	0
5	6462	5.66	0
5	6474	5.67	0
5	6486	5.68	0
5	6497	5.69	0
5	6508	5.7	0
5	6519	5.71	0
5	6532	5.72	0
5	6543	5.73	0
5	6554	5.74	0
5	6566	5.75	0
5	6577	5.76	0
5	6588	5.77	0
5	6599	5.78	0
5	6611	5.79	0
5	6624	5.8	0
5	6635	5.81	0
5	6646	5.82	0
5	6658	5.83	0
5	6670	5.84	0
5	6681	5.85	0
5	6693	5.86	0
5	6704	5.87	0
5	6715	5.88	0
5	6726	5.89	0
5	6737	5.9	0
5	6748	5.91	0
5	6760	5.92	0
5	6772	5.93	0
5	6783	5.94	0
5	6794	5.95	0
5	6805	5.96	0
5	6816	5.97	0
5	6827	5.98	0
5	6839	5.99	0
5	6850	6	0
5	6863	6.01	0
5	6874	6.02	0
5	6886	6.03	0
5	6897	6.04	0
5	6909	6.05	0
5	6922	6.06	0
5	6934	6.07	0
5	6946	6.08	0
5	6957	6.09	0
5	6969	6.1	0
5	6980	6.11	0
5	6991	6.12	0
5	7002	6.13	0
5	7014	6.14	0
5	7025	6.15	0
5	7036	6.16	0
5	7047	6.17	0
5	7058	6.18	0
5	7069	6.19	0
5	7080	6.2	0
5	7093	6.21	0
5	7104	6.22	0
5	7116	6.23	0
5	7127	6.24	0
5	7138	6.25	0
5	7149	6.26	0
5	7160	6.27	0
5	7172	6.28	0
5	7183	6.29	0
5	7194	6.3	0
5	7205	6.31	0
5	7217	6.32	0
5	7228	6.33	0
5	7239	6.34	0
5	7251	6.35	0
5	7262	6.36	0
5	7273	6.37	0
5	7284	6.38	0
5	7296	6.39	0
5	7307	6.4	0
5	7318	6.41	0
5	7329	6.42	0
5	7340	6.43	0
5	7352	6.44	0
5	7363	6.45	0
5	7374	6.46	0
5	7385	6.47	0
5	7396	6.48	0
5	7407	6.49	0
5	7418	6.5	0
5	7429	6.51	0
5	7440	6.52	0
5	7452	6.53	0
5	7464	6.54	0
5	7475	6.55	0
5	7486	6.56	0
5	7498	6.57	0
5	7509	6.58	0
5	7520	6.59	0
5	7531	6.6	0
5	7542	6.61	0
5	7553	6.62	0
5	7564	6.63	0
5	7575	6.64	0
5	7586	6.65	0
5	7599	6.66	0
5	7610	6.67	0
5	7621	6.68	0
5	7632	6.69	0
5	7643	6.7	0
5	7655	6.71	0
5	7666	6.72	0
5	7677	6.73	0
5	7688	6.74	0
5	7700	6.75	0
5	7713	6.76	0
5	7725	6.77	0
5	7736	6.78	0
5	7747	6.79	0
5	7758	6.8	0
5	7770	6.81	0
5	7781	6.82	0
5	7792	6.83	0
5	7804	6.84	0
5	7817	6.85	0
5	7828	6.86	0
5	7840	6.87	0
5	7851	6.88	0
5	7862	6.89	0
5	7873	6.9	0
5	7884	6.91	0
5	7897	6.92	0
5	7909	6.93	0
5	7920	6.94	0
5	7932	6.95	0
5	7943	6.96	0
5	7954	6.97	0
5	7965	6.98	0
5	7976	6.99	0
5	7987	7	0
5	7998	7.01	0
5	8009	7.02	0
5	8020	7.03	0
5	8032	7.04	0
5	8045	7.05	0
5	8059	7.06	0
5	8070	7.07	0
5	8081	7.08	0
5	8093	7.09	0
5	8105	7.1	0
5	8116	7.11	0
5	8127	7.12	0
5	8138	7.13	0
5	8149	7.14	0
5	8160	7.15	0
5	8171	7.16	0
5	8183	7.17	0
5	8194	7.18	0
5	8205	7.19	0
5	8217	7.2	0
5	8228	7.21	0
5	8240	7.22	0
5	8251	7.23	0
5	8263	7.24	0
5	8274	7.25	0
5	8286	7.26	0
5	8297	7.27	0
5	8309	7.28	0
5	8322	7.29	0
5	8336	7.3	0
5	8347	7.31	0
5	8358	7.32	0
5	8369	7.33	0
5	8381	7.34	0
5	8393	7.35	0
5	8405	7.36	0
5	8416	7.37	0
5	8427	7.38	0
5	8440	7.39	0
5	8451	7.4	0
5	8462	7.41	0
5	8473	7.42	0
5	8484	7.43	0
5	8495	7.44	0
5	8509	7.45	0
5	8521	7.46	0
5	8534	7.47	0
5	8545	7.48	0
5	8556	7.49	0
5	8567	7.5	0
5	8578	7.51	0
5	8590	7.52	0
5	8601	7.53	0
5	8613	7.54	0
5	8624	7.55	0
5	8636	7.56	0
5	8648	7.57	0
5	8659	7.58	0
5	8671	7.59	0
5	8682	7.6	0
5	8693	7.61	0
5	8704	7.62	0
5	8715	7.63	0
5	8726	7.64	0
5	8737	7.65	0
5	8748	7.66	0
5	8760	7.67	0
5	8771	7.68	0
5	8782	7.69	0
5	8793	7.7	0
5	8804	7.71	0
5	8815	7.72	0
5	8826	7.73	0
5	8837	7.74	0
5	8848	7.75	0
5	8859	7.76	0
5	8870	7.77	0
5	8882	7.78	0
5	8893	7.79	0
5	8904	7.8	0
5	8915	7.81	0
5	8926	7.82	0
5	8937	7.83	0
5	8948	7.84	0
5	8959	7.85	0
5	8970	7.86	0
5	8981	7.87	0
5	8992	7.88	0
5	9003	7.89	0
5	9015	7.9	0
5	9026	7.91	0
5	9037	7.92	0
5	9049	7.93	0
5	9061	7.94	0
5	9073	7.95	0
5	9085	7.96	0
5	9096	7.97	0
5	9107	7.98	0
[...]
11	7621	6.68	0
11	7632	6.69	0
11	7643	6.7	0
11	7655	6.71	0
11	7666	6.72	0
11	7677	6.73	0
11	7688	6.74	0
11	7700	6.75	0
11	7713	6.76	0
11	7725	6.77	0
11	7736	6.78	0
11	7747	6.79	0
11	7758	6.8	0
11	7770	6.81	0
11	7781	6.82	0
11	7792	6.83	0
11	7804	6.84	0
11	7817	6.85	0
11	7828	6.86	0
11	7840	6.87	0
11	7851	6.88	0
11	7862	6.89	0
11	7873	6.9	0
11	7884	6.91	0
11	7897	6.92	0
11	7909	6.93	0
11	7920	6.94	0
11	7932	6.95	0
11	7943	6.96	0
11	7954	6.97	0
11	7965	6.98	0
11	7976	6.99	0
11	7987	7	0
11	7998	7.01	0
11	8009	7.02	0
11	8020	7.03	0
11	8032	7.04	0
11	8045	7.05	0
11	8059	7.06	0
11	8070	7.07	0
11	8081	7.08	0
11	8093	7.09	0
11	8105	7.1	0
11	8116	7.11	0
11	8127	7.12	0
11	8138	7.13	0
11	8149	7.14	0
11	8160	7.15	0
11	8171	7.16	0
11	8183	7.17	0
11	8194	7.18	0
11	8205	7.19	0
11	8217	7.2	0
11	8228	7.21	0
11	8240	7.22	0
11	8251	7.23	0
11	8263	7.24	0
11	8274	7.25	0
11	8286	7.26	0
11	8297	7.27	0
11	8309	7.28	0
11	8322	7.29	0
11	8336	7.3	0
11	8347	7.31	0
11	8358	7.32	0
11	8369	7.33	0
11	8381	7.34	0
11	8393	7.35	0
11	8405	7.36	0
11	8416	7.37	0
11	8427	7.38	0
11	8440	7.39	0
11	8451	7.4	0
11	8462	7.41	0
11	8473	7.42	0
11	8484	7.43	0
11	8495	7.44	0
11	8509	7.45	0
11	8521	7.46	0
11	8534	7.47	0
11	8545	7.48	0
11	8556	7.49	0
11	8567	7.5	0
11	8578	7.51	0
11	8590	7.52	0
11	8601	7.53	0
11	8613	7.54	0
11	8624	7.55	0
11	8636	7.56	0
11	8648	7.57	0
11	8659	7.58	0
11	8671	7.59	0
11	8682	7.6	0
11	8693	7.61	0
11	8704	7.62	0
11	8715	7.63	0
11	8726	7.64	0
11	8737	7.65	0
11	8748	7.66	0
11	8760	7.67	0
11	8771	7.68	0
11	8782	7.69	0
11	8793	7.7	0
11	8804	7.71	0
11	8815	7.72	0
11	8826	7.73	0
11	8837	7.74	0
11	8848	7.75	0
11	8859	7.76	0
11	8870	7.77	0
11	8882	7.78	0
11	8893	7.79	0
11	8904	7.8	0
11	8915	7.81	0
11	8926	7.82	0
11	8937	7.83	0
11	8948	7.84	0
11	8959	7.85	0
11	8970	7.86	0
11	8981	7.87	0
11	8992	7.88	0
11	9003	7.89	0
11	9015	7.9	0
11	9026	7.91	0
11	9037	7.92	0
11	9049	7.93	0
11	9061	7.94	0
11	9073	7.95	0
11	9085	7.96	0
11	9096	7.97	0
11	9107	7.98	0
11	9118	7.99	0
11	9129	8	0
11	9141	8.01	0
11	9153	8.02	0
11	9164	8.03	0
11	9175	8.04	0
11	9186	8.05	0
11	9197	8.06	0
11	9208	8.07	0
11	9220	8.08	0
11	9231	8.09	0
11	9243	8.1	0
11	9254	8.11	0
11	9266	8.12	0
11	9277	8.13	0
11	9289	8.14	0
11	9301	8.15	0
11	9312	8.16	0
11	9324	8.17	0
11	9335	8.18	0
11	9346	8.19	0
11	9357	8.2	0
11	9368	8.21	0
11	9379	8.22	0
11	9390	8.23	0
11	9401	8.24	0
11	9412	8.25	0
11	9423	8.26	0
11	9434	8.27	0
11	9445	8.28	0
11	9458	8.29	0
11	9471	8.3	0
11	9482	8.31	0
11	9493	8.32	0
11	9504	8.33	0
11	9515	8.34	0
11	9527	8.35	0
11	9538	8.36	0
11	9550	8.37	0
11	9561	8.38	0
11	9572	8.39	0
11	9584	8.4	0
11	9595	8.41	0
11	9606	8.42	0
11	9617	8.43	0
11	9629	8.44	0
11	9641	8.45	0
11	9653	8.46	0
11	9664	8.47	0
11	9675	8.48	0
11	9687	8.49	0
11	9698	8.5	0
11	9710	8.51	0
11	9721	8.52	0
11	9732	8.53	0
11	9744	8.54	0
11	9756	8.55	0
11	9767	8.56	0
11	9778	8.57	0
11	9792	8.58	0
11	9803	8.59	0
11	9815	8.6	0
11	9826	8.61	0
11	9837	8.62	0
11	9848	8.63	0
11	9859	8.64	0
11	9870	8.65	0
11	9881	8.66	0
11	9892	8.67	0
11	9904	8.68	0
11	9915	8.69	0
11	9927	8.7	0
11	9939	8.71	0
11	9950	8.72	0
11	9962	8.73	0
11	9973	8.74	0
11	9985	8.75	0
11	9998	8.76	0
11	10010	8.77	0
11	10022	8.78	0
11	10033	8.79	0
11	10044	8.8	0
11	10056	8.81	0
11	10067	8.82	0
11	10078	8.83	0
11	10090	8.84	0
11	10101	8.85	0
11	10112	8.86	0
11	10125	8.87	0
11	10136	8.88	0
11	10148	8.89	0
11	10161	8.9	0
11	10172	8.91	0
11	10183	8.92	0
11	10194	8.93	0
11	10206	8.94	0
11	10218	8.95	0
11	10229	8.96	0
11	10241	8.97	0
11	10252	8.98	0
11	10264	8.99	0
11	10275	9	0
11	10287	9.01	0
11	10299	9.02	0
11	10310	9.03	0
11	10321	9.04	0
11	10332	9.05	0
11	10344	9.06	0
11	10355	9.07	0
11	10368	9.08	0
11	10379	9.09	0
11	10390	9.1	0
11	10401	9.11	0
11	10413	9.12	0
11	10424	9.13	0
11	10435	9.14	0
11	10447	9.15	0
11	10458	9.16	0
11	10470	9.17	0
11	10481	9.18	0
11	10492	9.19	0
11	10503	9.2	0
11	10515	9.21	0
11	10526	9.22	0
11	10537	9.23	0
11	10548	9.24	0
11	10559	9.25	0
11	10570	9.26	0
11	10581	9.27	0
11	10592	9.28	0
11	10603	9.29	0
11	10614	9.3	0
11	10625	9.31	0
11	10637	9.32	0
11	10648	9.33	0
11	10663	9.34	0
11	10674	9.35	0
11	10685	9.36	0
11	10696	9.37	0
11	10707	9.38	0
11	10719	9.39	0
11	10730	9.4	0
11	10741	9.41	0
11	10752	9.42	0
11	10763	9.43	0
11	10774	9.44	0
11	10785	9.45	0
11	10798	9.46	0
11	10809	9.47	0
11	10820	9.48	0
11	10831	9.49	0
11	10843	9.5	0
11	10854	9.51	0
11	10865	9.52	0
11	10876	9.53	0
11	10887	9.54	0
11	10898	9.55	0
11	10909	9.56	0
11	10920	9.57	0
11	10931	9.58	0
11	10943	9.59	0
11	10956	9.6	0
11	10968	9.61	0
11	10980	9.62	0
11	10991	9.63	0
11	11002	9.64	0
11	11015	9.65	0
11	11026	9.66	0
11	11037	9.67	0
11	11049	9.68	0
11	11061	9.69	0
11	11072	9.7	0
11	11083	9.71	0
11	11094	9.72	0
11	11105	9.73	0
11	11116	9.74	0
11	11127	9.75	0
11	11138	9.76	0
11	11149	9.77	0
11	11162	9.78	0
11	11173	9.79	0
11	11184	9.8	0
11	11196	9.81	0
11	11208	9.82	0
11	11220	9.83	0
11	11231	9.84	0
11	11243	9.85	0
11	11254	9.86	0
11	11265	9.87	0
11	11278	9.88	0
11	11289	9.89	0
11	11300	9.9	0
11	11311	9.91	0
11	11323	9.92	0
11	11335	9.93	0
11	11347	9.94	0
11	11360	9.95	0
11	11372	9.96	0
11	11383	9.97	0
11	11394	9.98	0
11	11405	9.99	0
11	11416	10	0
12	12	0.01	0
12	24	0.02	0
12	35	0.03	0
12	46	0.04	0
12	57	0.05	0
12	68	0.06	0
12	80	0.07	0
12	91	0.08	0
12	102	0.09	0
12	115	0.1	0
12	126	0.11	0
12	138	0.12	0
12	149	0.13	0
12	161	0.14	0
12	175	0.15	0
12	187	0.16	0
12	198	0.17	0
12	209	0.18	0
12	220	0.19	0
12	231	0.2	0
12	242	0.21	0
12	255	0.22	0
12	266	0.23	0
12	277	0.24	0
12	288	0.25	0
12	299	0.26	0
12	311	0.27	0
12	323	0.28	0
12	334	0.29	0
12	345	0.3	0
12	356	0.31	0
12	367	0.32	0
12	380	0.33	0
12	392	0.34	0
12	403	0.35	0
12	415	0.36	0
12	426	0.37	0
12	439	0.38	0
12	450	0.39	0
12	461	0.4	0
12	472	0.41	0
12	483	0.42	0
12	494	0.43	0
12	505	0.44	0
12	518	0.45	0
12	530	0.46	0
12	541	0.47	0
12	552	0.48	0
12	563	0.49	0
12	575	0.5	0
12	586	0.51	0
12	598	0.52	0
12	609	0.53	0
12	620	0.54	0
12	631	0.55	0
12	642	0.56	0
12	653	0.57	0
12	664	0.58	0
12	675	0.59	0
12	686	0.6	0
12	698	0.61	0
12	709	0.62	0
12	720	0.63	0
12	732	0.64	0
12	743	0.65	0
12	755	0.66	0
12	767	0.67	0
12	780	0.68	0
12	791	0.69	0
12	802	0.7	0
12	813	0.71	0
12	824	0.72	0
12	836	0.73	0
12	848	0.74	0
12	860	0.75	0
12	871	0.76	0
12	882	0.77	0
12	893	0.78	0
12	904	0.79	0
12	915	0.8	0
12	927	0.81	0
12	938	0.82	0
12	949	0.83	0
12	960	0.84	0
12	971	0.85	0
12	982	0.86	0
12	994	0.87	0
12	1005	0.88	0
12	1016	0.89	0
12	1027	0.9	0
12	1039	0.91	0
12	1051	0.92	0
12	1062	0.93	0
12	1073	0.94	0
12	1084	0.95	0
12	1097	0.96	0
12	1108	0.97	0
12	1119	0.98	0
12	1130	0.99	0
12	1141	1	0
12	1152	1.01	0
12	1163	1.02	0
12	1175	1.03	0
12	1186	1.04	0
12	1198	1.05	0
12	1210	1.06	0
12	1221	1.07	0
12	1232	1.08	0
12	1243	1.09	0
12	1254	1.1	0
12	1266	1.11	0
12	1277	1.12	0
12	1288	1.13	0
12	1299	1.14	0
12	1310	1.15	0
12	1321	1.16	0
12	1332	1.17	0
12	1343	1.18	0
12	1354	1.19	0
12	1366	1.2	0
12	1377	1.21	0
12	1389	1.22	0
12	1401	1.23	0
12	1412	1.24	0
12	1424	1.25	0
12	1435	1.26	0
12	1447	1.27	0
12	1458	1.28	0
12	1469	1.29	0
12	1481	1.3	0
12	1494	1.31	0
12	1505	1.32	0
12	1518	1.33	0
12	1529	1.34	0
12	1540	1.35	0
12	1551	1.36	0
12	1563	1.37	0
12	1574	1.38	0
12	1585	1.39	0
12	1596	1.4	0
12	1607	1.41	0
12	1618	1.42	0
12	1630	1.43	0
12	1641	1.44	0
12	1652	1.45	0
12	1663	1.46	0
12	1674	1.47	0
12	1687	1.48	0
12	1699	1.49	0
12	1711	1.5	0
12	1723	1.51	0
12	1734	1.52	0
12	1745	1.53	0
12	1757	1.54	0
12	1768	1.55	0
12	1780	1.56	0
12	1792	1.57	0
12	1804	1.58	0
12	1816	1.59	0
12	1828	1.6	0
12	1839	1.61	0
12	1850	1.62	0
12	1861	1.63	0
12	1874	1.64	0
12	1885	1.65	0
12	1897	1.66	0
12	1909	1.67	0
12	1922	1.68	0
12	1934	1.69	0
12	1945	1.7	0
12	1956	1.71	0
12	1968	1.72	0
12	1979	1.73	0
12	1990	1.74	0
12	2001	1.75	0
12	2012	1.76	0
12	2023	1.77	0
12	2035	1.78	0
12	2047	1.79	0
12	2058	1.8	0
12	2070	1.81	0
12	2082	1.82	0
12	2093	1.83	0
12	2104	1.84	0
12	2115	1.85	0
12	2126	1.86	0
12	2139	1.87	0
12	2150	1.88	0
12	2161	1.89	0
12	2173	1.9	0
12	2184	1.91	0
12	2196	1.92	0
12	2207	1.93	0
12	2218	1.94	0
12	2229	1.95	0
12	2241	1.96	0
12	2253	1.97	0
12	2264	1.98	0
12	2276	1.99	0
12	2287	2	0
12	2299	2.01	0
12	2310	2.02	0
12	2321	2.03	0
12	2333	2.04	0
12	2344	2.05	0
12	2357	2.06	0
12	2368	2.07	0
12	2379	2.08	0
12	2390	2.09	0
12	2401	2.1	0
12	2412	2.11	0
12	2423	2.12	0
12	2434	2.13	0
12	2446	2.14	0
12	2458	2.15	0
12	2469	2.16	0
12	2480	2.17	0
12	2492	2.18	0
12	2504	2.19	0
12	2515	2.2	0
12	2526	2.21	0
12	2537	2.22	0
12	2548	2.23	0
12	2559	2.24	0
12	2570	2.25	0
12	2581	2.26	0
12	2592	2.27	0
12	2604	2.28	0
12	2615	2.29	0
12	2626	2.3	0
12	2637	2.31	0
12	2650	2.32	0
12	2661	2.33	0
12	2672	2.34	0
12	2683	2.35	0
12	2695	2.36	0
12	2706	2.37	0
12	2718	2.38	0
12	2729	2.39	0
12	2741	2.4	0
12	2752	2.41	0
12	2763	2.42	0
12	2774	2.43	0
12	2788	2.44	0
12	2800	2.45	0
12	2812	2.46	0
12	2823	2.47	0
12	2834	2.48	0
12	2845	2.49	0
12	2856	2.5	0
12	2868	2.51	0
12	2880	2.52	0
12	2893	2.53	0
12	2904	2.54	0
12	2915	2.55	0
12	2926	2.56	0
12	2938	2.57	0
12	2949	2.58	0
12	2962	2.59	0
12	2973	2.6	0
12	2984	2.61	0
12	2995	2.62	0
12	3006	2.63	0
12	3017	2.64	0
12	3028	2.65	0
12	3039	2.66	0
12	3050	2.67	0
12	3061	2.68	0
12	3072	2.69	0
12	3084	2.7	0
12	3096	2.71	0
12	3107	2.72	0
12	3118	2.73	0
12	3129	2.74	0
12	3140	2.75	0
12	3152	2.76	0
12	3164	2.77	0
12	3176	2.78	0
12	3187	2.79	0
12	3198	2.8	0
12	3211	2.81	0
12	3222	2.82	0
12	3234	2.83	0
12	3245	2.84	0
12	3256	2.85	0
12	3267	2.86	0
12	3279	2.87	0
12	3290	2.88	0
12	3302	2.89	0
12	3314	2.9	0
12	3325	2.91	0
12	3336	2.92	0
12	3348	2.93	0
12	3359	2.94	0
12	3370	2.95	0
12	3381	2.96	0
12	3393	2.97	0
12	3404	2.98	0
12	3416	2.99	0
12	3427	3	0
12	3438	3.01	0
12	3449	3.02	0
12	3462	3.03	0
12	3474	3.04	0
12	3485	3.05	0
12	3496	3.06	0
12	3507	3.07	0
12	3519	3.08	0
12	3530	3.09	0
12	3541	3.1	0
12	3552	3.11	0
12	3563	3.12	0
12	3574	3.13	0
12	3586	3.14	0
12	3597	3.15	0
12	3608	3.16	0
12	3619	3.17	0
12	3630	3.18	0
12	3641	3.19	0
12	3653	3.2	0
12	3664	3.21	0
12	3675	3.22	0
12	3686	3.23	0
12	3697	3.24	0
12	3708	3.25	0
12	3719	3.26	0
12	3730	3.27	0
12	3741	3.28	0
12	3752	3.29	0
12	3764	3.3	0
12	3775	3.31	0
12	3786	3.32	0
12	3797	3.33	0
12	3809	3.34	0
12	3821	3.35	0
12	3832	3.36	0
12	3844	3.37	0
12	3856	3.38	0
12	3867	3.39	0
12	3879	3.4	0
12	3890	3.41	0
12	3902	3.42	0
12	3913	3.43	0
12	3925	3.44	0
12	3936	3.45	0
12	3947	3.46	0
12	3958	3.47	0
12	3970	3.48	0
12	3981	3.49	0
12	3993	3.5	0
12	4004	3.51	0
12	4015	3.52	0
12	4028	3.53	0
12	4039	3.54	0
12	4050	3.55	0
12	4062	3.56	0
12	4073	3.57	0
12	4084	3.58	0
12	4095	3.59	0
12	4107	3.6	0
12	4118	3.61	0
12	4129	3.62	0
12	4141	3.63	0
12	4152	3.64	0
12	4165	3.65	0
12	4176	3.66	0
12	4188	3.67	0
12	4199	3.68	0
12	4210	3.69	0
12	4222	3.7	0
12	4233	3.71	0
12	4244	3.72	0
12	4256	3.73	0
12	4270	3.74	0
12	4281	3.75	0
12	4293	3.76	0
12	4306	3.77	0
12	4317	3.78	0
12	4328	3.79	0
12	4339	3.8	0
12	4350	3.81	0
12	4363	3.82	0
12	4374	3.83	0
12	4386	3.84	0
12	4397	3.85	0
12	4408	3.86	0
12	4420	3.87	0
12	4431	3.88	0
12	4443	3.89	0
12	4455	3.9	0
12	4466	3.91	0
12	4477	3.92	0
12	4488	3.93	0
12	4500	3.94	0
12	4511	3.95	0
12	4522	3.96	0
12	4534	3.97	0
12	4545	3.98	0
12	4556	3.99	0
12	4567	4	0
12	4578	4.01	0
12	4590	4.02	0
12	4601	4.03	0
12	4612	4.04	0
12	4625	4.05	0
12	4636	4.06	0
12	4647	4.07	0
12	4658	4.08	0
12	4669	4.09	0
12	4681	4.1	0
12	4692	4.11	0
12	4703	4.12	0
12	4714	4.13	0
12	4725	4.14	0
12	4738	4.15	0
12	4749	4.16	0
12	4760	4.17	0
12	4771	4.18	0
12	4782	4.19	0
12	4793	4.2	0
12	4804	4.21	0
12	4817	4.22	0
12	4828	4.23	0
12	4839	4.24	0
12	4850	4.25	0
12	4861	4.26	0
12	4872	4.27	0
12	4884	4.28	0
12	4897	4.29	0
12	4909	4.3	0
12	4920	4.31	0
12	4932	4.32	0
12	4943	4.33	0
12	4955	4.34	0
12	4966	4.35	0
12	4977	4.36	0
12	4988	4.37	0
12	4999	4.38	0
12	5010	4.39	0
12	5023	4.4	0
12	5035	4.41	0
12	5047	4.42	0
12	5058	4.43	0
12	5069	4.44	0
12	5081	4.45	0
12	5092	4.46	0
12	5103	4.47	0
12	5114	4.48	0
12	5126	4.49	0
12	5137	4.5	0
12	5148	4.51	0
12	5159	4.52	0
12	5170	4.53	0
12	5181	4.54	0
12	5194	4.55	0
12	5206	4.56	0
12	5218	4.57	0
12	5229	4.58	0
12	5241	4.59	0
12	5252	4.6	0
12	5264	4.61	0
12	5276	4.62	0
12	5287	4.63	0
12	5298	4.64	0
12	5309	4.65	0
12	5320	4.66	0
12	5331	4.67	0
12	5342	4.68	0
12	5353	4.69	0
12	5364	4.7	0
12	5375	4.71	0
12	5386	4.72	0
12	5398	4.73	0
12	5409	4.74	0
12	5420	4.75	0
12	5431	4.76	0
12	5443	4.77	0
12	5455	4.78	0
12	5466	4.79	0
12	5477	4.8	0
12	5490	4.81	0
12	5501	4.82	0
12	5514	4.83	0
12	5525	4.84	0
12	5536	4.85	0
12	5547	4.86	0
12	5558	4.87	0
12	5569	4.88	0
12	5581	4.89	0
12	5592	4.9	0
12	5603	4.91	0
12	5615	4.92	0
12	5627	4.93	0
12	5640	4.94	0
12	5654	4.95	0
12	5665	4.96	0
12	5676	4.97	0
12	5687	4.98	0
12	5698	4.99	0
12	5710	5	0
12	5721	5.01	0
12	5732	5.02	0
12	5743	5.03	0
12	5754	5.04	0
12	5765	5.05	0
12	5777	5.06	0
12	5788	5.07	0
12	5799	5.08	0
12	5810	5.09	0
12	5821	5.1	0
12	5832	5.11	0
12	5843	5.12	0
12	5856	5.13	0
12	5867	5.14	0
12	5878	5.15	0
12	5889	5.16	0
12	5901	5.17	0
12	5915	5.18	0
12	5926	5.19	0
12	5937	5.2	0
12	5948	5.21	0
12	5960	5.22	0
12	5971	5.23	0
12	5983	5.24	0
12	5994	5.25	0
12	6005	5.26	0
12	6016	5.27	0
12	6028	5.28	0
12	6040	5.29	0
12	6052	5.3	0
12	6063	5.31	0
12	6074	5.32	0
12	6085	5.33	0
12	6096	5.34	0
12	6107	5.35	0
12	6119	5.36	0
12	6131	5.37	0
12	6143	5.38	0
12	6154	5.39	0
12	6166	5.4	0
12	6178	5.41	0
12	6189	5.42	0
12	6200	5.43	0
12	6211	5.44	0
12	6223	5.45	0
12	6234	5.46	0
12	6246	5.47	0
12	6257	5.48	0
12	6268	5.49	0
12	6279	5.5	0
12	6291	5.51	0
12	6302	5.52	0
12	6314	5.53	0
12	6325	5.54	0
12	6337	5.55	0
12	6348	5.56	0
12	6359	5.57	0
12	6370	5.58	0
12	6381	5.59	0
12	6393	5.6	0
12	6405	5.61	0
12	6417	5.62	0
12	6429	5.63	0
12	6440	5.64	0
12	6451	5.65	0
12	6462	5.66	0
12	6474	5.67	0
12	6486	5.68	0
12	6497	5.69	0
12	6508	5.7	0
12	6519	5.71	0
12	6532	5.72	0
12	6543	5.73	0
12	6554	5.74	0
12	6566	5.75	0
12	6577	5.76	0
12	6588	5.77	0
12	6599	5.78	0
12	6611	5.79	0
12	6624	5.8	0
12	6635	5.81	0
12	6646	5.82	0
12	6658	5.83	0
12	6670	5.84	0
12	6681	5.85	0
12	6693	5.86	0
12	6704	5.87	0
12	6715	5.88	0
12	6726	5.89	0
12	6737	5.9	0
12	6748	5.91	0
12	6760	5.92	0
12	6772	5.93	0
12	6783	5.94	0
12	6794	5.95	0
12	6805	5.96	0
12	6816	5.97	0
12	6827	5.98	0
12	6839	5.99	0
12	6850	6	0
12	6863	6.01	0
12	6874	6.02	0
12	6886	6.03	0
12	6897	6.04	0
12	6909	6.05	0
12	6922	6.06	0
12	6934	6.07	0
12	6946	6.08	0
12	6957	6.09	0
12	6969	6.1	0
12	6980	6.11	0
12	6991	6.12	0
12	7002	6.13	0
12	7014	6.14	0
12	7025	6.15	0
12	7036	6.16	0
12	7047	6.17	0
12	7058	6.18	0
12	7069	6.19	0
12	7080	6.2	0
12	7093	6.21	0
12	7104	6.22	0
12	7116	6.23	0
12	7127	6.24	0
12	7138	6.25	0
12	7149	6.26	0
12	7160	6.27	0
12	7172	6.28	0
12	7183	6.29	0
12	7194	6.3	0
12	7205	6.31	0
12	7217	6.32	0
12	7228	6.33	0
12	7239	6.34	0
12	7251	6.35	0
12	7262	6.36	0
12	7273	6.37	0
12	7284	6.38	0
12	7296	6.39	0
12	7307	6.4	0
12	7318	6.41	0
12	7329	6.42	0
12	7340	6.43	0
12	7352	6.44	0
12	7363	6.45	0
12	7374	6.46	0
12	7385	6.47	0
12	7396	6.48	0
12	7407	6.49	0
12	7418	6.5	0
12	7429	6.51	0
12	7440	6.52	0
12	7452	6.53	0
12	7464	6.54	0
12	7475	6.55	0
12	7486	6.56	0
12	7498	6.57	0
12	7509	6.58	0
12	7520	6.59	0
12	7531	6.6	0
12	7542	6.61	0
12	7553	6.62	0
12	7564	6.63	0
12	7575	6.64	0
12	7586	6.65	0
12	7599	6.66	0
12	7610	6.67	0
12	7621	6.68	0
12	7632	6.69	0
12	7643	6.7	0
12	7655	6.71	0
12	7666	6.72	0
12	7677	6.73	0
12	7688	6.74	0
12	7700	6.75	0
12	7713	6.76	0
12	7725	6.77	0
12	7736	6.78	0
12	7747	6.79	0
12	7758	6.8	0
12	7770	6.81	0
12	7781	6.82	0
12	7792	6.83	0
12	7804	6.84	0
12	7817	6.85	0
12	7828	6.86	0
12	7840	6.87	0
12	7851	6.88	0
12	7862	6.89	0
12	7873	6.9	0
12	7884	6.91	0
12	7897	6.92	0
12	7909	6.93	0
12	7920	6.94	0
12	7932	6.95	0
12	7943	6.96	0
12	7954	6.97	0
12	7965	6.98	0
12	7976	6.99	0
12	7987	7	0
12	7998	7.01	0
12	8009	7.02	0
12	8020	7.03	0
12	8032	7.04	0
12	8045	7.05	0
12	8059	7.06	0
12	8070	7.07	0
12	8081	7.08	0
12	8093	7.09	0
12	8105	7.1	0
12	8116	7.11	0
12	8127	7.12	0
12	8138	7.13	0
12	8149	7.14	0
12	8160	7.15	0
12	8171	7.16	0
12	8183	7.17	0
12	8194	7.18	0
12	8205	7.19	0
12	8217	7.2	0
12	8228	7.21	0
12	8240	7.22	0
12	8251	7.23	0
12	8263	7.24	0
12	8274	7.25	0
12	8286	7.26	0
12	8297	7.27	0
12	8309	7.28	0
12	8322	7.29	0
12	8336	7.3	0
12	8347	7.31	0
12	8358	7.32	0
12	8369	7.33	0
12	8381	7.34	0
12	8393	7.35	0
12	8405	7.36	0
12	8416	7.37	0
12	8427	7.38	0
12	8440	7.39	0
12	8451	7.4	0
12	8462	7.41	0
12	8473	7.42	0
12	8484	7.43	0
12	8495	7.44	0
12	8509	7.45	0
12	8521	7.46	0
12	8534	7.47	0
12	8545	7.48	0
12	8556	7.49	0
12	8567	7.5	0
12	8578	7.51	0
12	8590	7.52	0
12	8601	7.53	0
12	8613	7.54	0
12	8624	7.55	0
12	8636	7.56	0
12	8648	7.57	0
12	8659	7.58	0
12	8671	7.59	0
12	8682	7.6	0
12	8693	7.61	0
12	8704	7.62	0
12	8715	7.63	0
12	8726	7.64	0
12	8737	7.65	0
12	8748	7.66	0
12	8760	7.67	0
12	8771	7.68	0
12	8782	7.69	0
12	8793	7.7	0
12	8804	7.71	0
12	8815	7.72	0
12	8826	7.73	0
12	8837	7.74	0
12	8848	7.75	0
12	8859	7.76	0
12	8870	7.77	0
12	8882	7.78	0
12	8893	7.79	0
12	8904	7.8	0
12	8915	7.81	0
12	8926	7.82	0
12	8937	7.83	0
12	8948	7.84	0
12	8959	7.85	0
12	8970	7.86	0
12	8981	7.87	0
12	8992	7.88	0
12	9003	7.89	0
12	9015	7.9	0
12	9026	7.91	0
12	9037	7.92	0
12	9049	7.93	0
12	9061	7.94	0
12	9073	7.95	0
12	9085	7.96	0
12	9096	7.97	0
12	9107	7.98	0
12	9118	7.99	0
12	9129	8	0
12	9141	8.01	0
12	9153	8.02	0
12	9164	8.03	0
12	9175	8.04	0
12	9186	8.05	0
12	9197	8.06	0
12	9208	8.07	0
12	9220	8.08	0
12	9231	8.09	0
12	9243	8.1	0
12	9254	8.11	0
12	9266	8.12	0
12	9277	8.13	0
12	9289	8.14	0
12	9301	8.15	0
12	9312	8.16	0
12	9324	8.17	0
12	9335	8.18	0
12	9346	8.19	0
12	9357	8.2	0
12	9368	8.21	0
12	9379	8.22	0
12	9390	8.23	0
12	9401	8.24	0
12	9412	8.25	0
12	9423	8.26	0
12	9434	8.27	0
12	9445	8.28	0
12	9458	8.29	0
12	9471	8.3	0
12	9482	8.31	0
12	9493	8.32	0
12	9504	8.33	0
12	9515	8.34	0
12	9527	8.35	0
12	9538	8.36	0
12	9550	8.37	0
12	9561	8.38	0
12	9572	8.39	0
12	9584	8.4	0
12	9595	8.41	0
12	9606	8.42	0
12	9617	8.43	0
12	9629	8.44	0
12	9641	8.45	0
12	9653	8.46	0
12	9664	8.47	0
12	9675	8.48	0
12	9687	8.49	0
12	9698	8.5	0
12	9710	8.51	0
12	9721	8.52	0
12	9732	8.53	0
12	9744	8.54	0
12	9756	8.55	0
12	9767	8.56	0
12	9778	8.57	0
12	9792	8.58	0
12	9803	8.59	0
12	9815	8.6	0
12	9826	8.61	0
12	9837	8.62	0
12	9848	8.63	0
12	9859	8.64	0
12	9870	8.65	0
12	9881	8.66	0
12	9892	8.67	0
12	9904	8.68	0
12	9915	8.69	0
12	9927	8.7	0
12	9939	8.71	0
12	9950	8.72	0
12	9962	8.73	0
12	9973	8.74	0
12	9985	8.75	0
12	9998	8.76	0
12	10010	8.77	0
12	10022	8.78	0
12	10033	8.79	0
12	10044	8.8	0
12	10056	8.81	0
12	10067	8.82	0
12	10078	8.83	0
12	10090	8.84	0
12	10101	8.85	0
12	10112	8.86	0
12	10125	8.87	0
12	10136	8.88	0
12	10148	8.89	0
12	10161	8.9	0
12	10172	8.91	0
12	10183	8.92	0
12	10194	8.93	0
12	10206	8.94	0
12	10218	8.95	0
12	10229	8.96	0
12	10241	8.97	0
12	10252	8.98	0
12	10264	8.99	0
12	10275	9	0
12	10287	9.01	0
12	10299	9.02	0
12	10310	9.03	0
12	10321	9.04	0
12	10332	9.05	0
12	10344	9.06	0
12	10355	9.07	0
12	10368	9.08	0
12	10379	9.09	0
12	10390	9.1	0
12	10401	9.11	0
12	10413	9.12	0
12	10424	9.13	0
12	10435	9.14	0
12	10447	9.15	0
12	10458	9.16	0
12	10470	9.17	0
12	10481	9.18	0
12	10492	9.19	0
12	10503	9.2	0
12	10515	9.21	0
12	10526	9.22	0
12	10537	9.23	0
12	10548	9.24	0
12	10559	9.25	0
12	10570	9.26	0
12	10581	9.27	0
12	10592	9.28	0
12	10603	9.29	0
12	10614	9.3	0
12	10625	9.31	0
12	10637	9.32	0
12	10648	9.33	0
12	10663	9.34	0
12	10674	9.35	0
12	10685	9.36	0
12	10696	9.37	0
12	10707	9.38	0
12	10719	9.39	0
12	10730	9.4	0
12	10741	9.41	0
12	10752	9.42	0
12	10763	9.43	0
12	10774	9.44	0
12	10785	9.45	0
12	10798	9.46	0
12	10809	9.47	0
12	10820	9.48	0
12	10831	9.49	0
12	10843	9.5	0
12	10854	9.51	0
12	10865	9.52	0
12	10876	9.53	0
12	10887	9.54	0
12	10898	9.55	0
12	10909	9.56	0
12	10920	9.57	0
12	10931	9.58	0
12	10943	9.59	0
12	10956	9.6	0
12	10968	9.61	0
12	10980	9.62	0
12	10991	9.63	0
12	11002	9.64	0
12	11015	9.65	0
12	11026	9.66	0
12	11037	9.67	0
12	11049	9.68	0
12	11061	9.69	0
12	11072	9.7	0
12	11083	9.71	0
12	11094	9.72	0
12	11105	9.73	0
12	11116	9.74	0
12	11127	9.75	0
12	11138	9.76	0
12	11149	9.77	0
12	11162	9.78	0
12	11173	9.79	0
12	11184	9.8	0
12	11196	9.81	0
12	11208	9.82	0
12	11220	9.83	0
12	11231	9.84	0
12	11243	9.85	0
12	11254	9.86	0
12	11265	9.87	0
12	11278	9.88	0
12	11289	9.89	0
12	11300	9.9	0
12	11311	9.91	0
12	11323	9.92	0
12	11335	9.93	0
12	11347	9.94	0
12	11360	9.95	0
12	11372	9.96	0
12	11383	9.97	0
12	11394	9.98	0
12	11405	9.99	0
12	11416	10	0

