version 2
run General-1-20191218-18:43:43-352
attr configname General
attr datetime 20191218-18:43:43
attr experiment General
attr inifile omnetpp.ini
attr iterationvars ""
attr iterationvarsf ""
attr measurement ""
attr network CellularNetwork
attr processid 352
attr repetition 1
attr replication #1
attr resultdir results
attr runnumber 1
attr seedset 1
param **.nUsers 10
param **.antenna.timeslot 0.01s
param **.user[*].lambda 0.008s

vector 0 CellularNetwork.antenna throughput:vector ETV
attr source throughput
vector 1 CellularNetwork.antenna NumServedUser:vector ETV
attr source NumServedUser
vector 2 CellularNetwork.antenna tptUser-0:vector ETV
vector 3 CellularNetwork.antenna tptUser-1:vector ETV
vector 4 CellularNetwork.antenna tptUser-2:vector ETV
vector 5 CellularNetwork.antenna tptUser-3:vector ETV
vector 6 CellularNetwork.antenna tptUser-4:vector ETV
vector 7 CellularNetwork.antenna tptUser-5:vector ETV
vector 8 CellularNetwork.antenna tptUser-6:vector ETV
vector 9 CellularNetwork.antenna tptUser-7:vector ETV
vector 10 CellularNetwork.antenna tptUser-8:vector ETV
vector 11 CellularNetwork.antenna tptUser-9:vector ETV
vector 12 CellularNetwork.antenna responseTime:vector ETV
attr source responseTime
0	50	0.01	0
0	85	0.02	414
0	120	0.03	497
0	151	0.04	954
0	192	0.05	447
0	239	0.06	544
0	276	0.07	423
0	309	0.08	599
0	348	0.09	409
0	381	0.1	297
0	412	0.11	404
0	453	0.12	209
0	492	0.13	897
0	525	0.14	444
0	562	0.15	319
0	605	0.16	290
0	640	0.17	609
0	679	0.18	583
0	716	0.19	597
0	755	0.2	409
0	780	0.21	489
0	817	0.22	263
0	854	0.23	596
0	907	0.24	280
0	932	0.25	866
0	963	0.26	659
0	994	0.27	217
0	1037	0.28	315
0	1084	0.29	557
0	1117	0.3	320
0	1154	0.31	589
0	1193	0.32	614
0	1228	0.33	403
0	1265	0.34	443
0	1306	0.35	344
0	1337	0.36	638
0	1386	0.37	369
0	1419	0.38	540
0	1454	0.39	307
0	1499	0.4	728
0	1536	0.41	442
0	1571	0.42	503
0	1600	0.43	626
0	1633	0.44	357
0	1678	0.45	519
0	1711	0.46	365
0	1738	0.47	552
0	1763	0.48	537
0	1790	0.49	397
0	1829	0.5	388
0	1876	0.51	479
0	1915	0.52	895
0	1952	0.53	454
0	1985	0.54	602
0	2018	0.55	254
0	2057	0.56	496
0	2090	0.57	540
0	2135	0.58	392
0	2176	0.59	317
0	2203	0.6	525
0	2222	0.61	462
0	2245	0.62	318
0	2270	0.63	234
0	2313	0.64	213
0	2352	0.65	347
0	2377	0.66	783
0	2396	0.67	258
0	2433	0.68	197
0	2452	0.69	484
0	2479	0.7	180
0	2510	0.71	263
0	2553	0.72	341
0	2592	0.73	669
0	2633	0.74	433
0	2656	0.75	330
0	2697	0.76	384
0	2748	0.77	352
0	2783	0.78	333
0	2818	0.79	326
0	2847	0.8	909
0	2882	0.81	156
0	2919	0.82	572
0	2942	0.83	433
0	2985	0.84	110
0	3022	0.85	1014
0	3057	0.86	331
0	3098	0.87	381
0	3127	0.88	323
0	3164	0.89	867
0	3189	0.9	529
0	3222	0.91	170
0	3269	0.92	410
0	3314	0.93	555
0	3351	0.94	574
0	3372	0.95	522
0	3415	0.96	493
0	3454	0.97	306
0	3499	0.98	256
0	3532	0.99	541
0	3575	1	341
0	3614	1.01	730
0	3647	1.02	520
0	3694	1.03	895
0	3733	1.04	488
0	3770	1.05	328
0	3809	1.06	116
0	3852	1.07	821
0	3887	1.08	573
0	3928	1.09	292
0	3959	1.1	327
0	3998	1.11	961
0	4031	1.12	385
0	4078	1.13	516
0	4113	1.14	766
0	4152	1.15	409
0	4181	1.16	585
0	4226	1.17	331
0	4255	1.18	431
0	4288	1.19	630
0	4319	1.2	377
0	4366	1.21	532
0	4395	1.22	825
0	4438	1.23	725
0	4479	1.24	506
0	4514	1.25	528
0	4557	1.26	472
0	4596	1.27	602
0	4631	1.28	493
0	4676	1.29	469
0	4707	1.3	570
0	4734	1.31	577
0	4765	1.32	263
0	4806	1.33	290
0	4837	1.34	549
0	4884	1.35	264
0	4927	1.36	532
0	4970	1.37	497
0	4999	1.38	668
0	5028	1.39	533
0	5057	1.4	400
0	5100	1.41	738
0	5137	1.42	484
0	5172	1.43	487
0	5207	1.44	268
0	5242	1.45	624
0	5279	1.46	439
0	5306	1.47	564
0	5339	1.48	384
0	5380	1.49	520
0	5415	1.5	630
0	5462	1.51	312
0	5505	1.52	734
0	5528	1.53	620
0	5561	1.54	309
0	5598	1.55	440
0	5635	1.56	339
0	5676	1.57	151
0	5717	1.58	573
0	5748	1.59	328
0	5781	1.6	514
0	5818	1.61	510
0	5847	1.62	791
0	5890	1.63	465
0	5921	1.64	352
0	5962	1.65	468
0	5995	1.66	652
0	6040	1.67	625
0	6081	1.68	328
0	6114	1.69	694
0	6151	1.7	680
0	6182	1.71	851
0	6211	1.72	335
0	6250	1.73	328
0	6283	1.74	313
0	6314	1.75	803
0	6367	1.76	280
0	6404	1.77	537
0	6435	1.78	476
0	6480	1.79	398
0	6525	1.8	410
0	6566	1.81	1095
0	6595	1.82	379
0	6632	1.83	481
0	6659	1.84	209
0	6690	1.85	785
0	6725	1.86	382
0	6770	1.87	392
0	6799	1.88	691
0	6832	1.89	379
0	6869	1.9	270
0	6906	1.91	446
0	6955	1.92	484
0	6988	1.93	614
0	7015	1.94	406
0	7046	1.95	348
0	7083	1.96	413
0	7114	1.97	473
0	7167	1.98	501
0	7204	1.99	371
0	7249	2	633
0	7292	2.01	410
0	7323	2.02	484
0	7352	2.03	789
0	7399	2.04	221
0	7432	2.05	619
0	7463	2.06	677
0	7502	2.07	394
0	7523	2.08	530
0	7564	2.09	224
0	7599	2.1	352
0	7630	2.11	446
0	7669	2.12	514
0	7720	2.13	559
0	7759	2.14	377
0	7782	2.15	309
0	7825	2.16	352
0	7860	2.17	377
0	7897	2.18	558
0	7934	2.19	687
0	7967	2.2	175
0	8000	2.21	888
0	8035	2.22	380
0	8090	2.23	552
0	8131	2.24	362
0	8156	2.25	314
0	8185	2.26	357
0	8228	2.27	486
0	8263	2.28	646
0	8292	2.29	714
0	8329	2.3	369
0	8358	2.31	403
0	8399	2.32	503
0	8426	2.33	285
0	8459	2.34	478
0	8490	2.35	188
0	8511	2.36	745
0	8540	2.37	134
0	8595	2.38	381
0	8630	2.39	521
0	8661	2.4	643
0	8692	2.41	404
0	8729	2.42	254
0	8766	2.43	384
0	8805	2.44	785
0	8858	2.45	594
0	8887	2.46	597
0	8918	2.47	502
0	8947	2.48	538
0	8978	2.49	230
0	9017	2.5	480
0	9036	2.51	416
0	9073	2.52	379
0	9112	2.53	309
0	9141	2.54	360
0	9180	2.55	792
0	9215	2.56	419
0	9258	2.57	608
0	9295	2.58	722
0	9334	2.59	187
0	9367	2.6	487
0	9404	2.61	541
0	9427	2.62	463
0	9460	2.63	143
0	9501	2.64	389
0	9546	2.65	500
0	9577	2.66	294
0	9612	2.67	600
0	9641	2.68	437
0	9670	2.69	216
0	9705	2.7	255
0	9758	2.71	248
0	9787	2.72	113
0	9820	2.73	704
0	9851	2.74	907
0	9886	2.75	602
0	9919	2.76	884
0	9970	2.77	491
0	10013	2.78	489
0	10040	2.79	599
0	10091	2.8	515
0	10154	2.81	660
0	10189	2.82	890
0	10220	2.83	383
0	10257	2.84	522
0	10286	2.85	505
0	10321	2.86	331
0	10358	2.87	354
0	10401	2.88	542
0	10436	2.89	684
0	10471	2.9	388
0	10516	2.91	347
0	10543	2.92	633
0	10580	2.93	563
0	10619	2.94	244
0	10648	2.95	351
0	10689	2.96	356
0	10730	2.97	646
0	10763	2.98	877
0	10798	2.99	448
0	10827	3	643
0	10866	3.01	362
0	10897	3.02	504
0	10934	3.03	343
0	10957	3.04	274
0	10996	3.05	248
0	11045	3.06	614
0	11088	3.07	511
0	11131	3.08	677
0	11162	3.09	218
0	11193	3.1	281
0	11234	3.11	835
0	11279	3.12	461
0	11302	3.13	578
0	11337	3.14	448
0	11384	3.15	517
0	11425	3.16	744
0	11454	3.17	732
0	11479	3.18	416
0	11504	3.19	246
0	11545	3.2	185
0	11584	3.21	265
0	11607	3.22	206
0	11644	3.23	230
0	11679	3.24	622
0	11708	3.25	248
0	11731	3.26	847
0	11770	3.27	192
0	11797	3.28	374
0	11830	3.29	362
0	11879	3.3	395
0	11924	3.31	859
0	11975	3.32	609
0	12008	3.33	508
0	12035	3.34	446
0	12076	3.35	297
0	12111	3.36	354
0	12152	3.37	527
0	12187	3.38	503
0	12222	3.39	419
0	12255	3.4	449
0	12280	3.41	529
0	12311	3.42	319
0	12352	3.43	324
0	12399	3.44	433
0	12438	3.45	628
0	12479	3.46	696
0	12518	3.47	376
0	12563	3.48	369
0	12606	3.49	404
0	12647	3.5	821
0	12668	3.51	649
0	12697	3.52	196
0	12734	3.53	326
0	12773	3.54	246
0	12816	3.55	326
0	12843	3.56	458
0	12886	3.57	599
0	12925	3.58	1041
0	12964	3.59	594
0	13001	3.6	376
0	13028	3.61	411
0	13069	3.62	390
0	13106	3.63	351
0	13141	3.64	812
0	13166	3.65	432
0	13199	3.66	242
0	13228	3.67	463
0	13275	3.68	254
0	13318	3.69	450
0	13357	3.7	820
0	13388	3.71	375
0	13417	3.72	418
0	13452	3.73	535
0	13489	3.74	322
0	13528	3.75	702
0	13563	3.76	228
0	13598	3.77	640
0	13625	3.78	439
0	13670	3.79	360
0	13699	3.8	721
0	13740	3.81	290
0	13761	3.82	345
0	13796	3.83	776
0	13835	3.84	371
0	13880	3.85	473
0	13915	3.86	753
0	13966	3.87	391
0	14005	3.88	560
0	14054	3.89	787
0	14097	3.9	406
0	14138	3.91	704
0	14175	3.92	484
0	14218	3.93	325
0	14249	3.94	785
0	14290	3.95	246
0	14323	3.96	745
0	14364	3.97	384
0	14387	3.98	255
0	14426	3.99	470
0	14457	4	232
0	14502	4.01	660
0	14533	4.02	790
0	14560	4.03	193
0	14595	4.04	580
0	14634	4.05	162
0	14673	4.06	152
0	14708	4.07	906
0	14743	4.08	451
0	14780	4.09	432
0	14807	4.1	534
0	14842	4.11	262
0	14885	4.12	400
0	14910	4.13	438
0	14927	4.14	259
0	14958	4.15	371
0	14993	4.16	270
0	15040	4.17	457
0	15083	4.18	74
0	15108	4.19	715
0	15139	4.2	740
0	15184	4.21	424
0	15215	4.22	597
0	15250	4.23	280
0	15287	4.24	308
0	15314	4.25	803
0	15361	4.26	375
0	15388	4.27	223
0	15433	4.28	288
0	15466	4.29	468
0	15491	4.3	386
0	15522	4.31	643
0	15567	4.32	786
0	15600	4.33	482
0	15643	4.34	628
0	15688	4.35	442
0	15723	4.36	580
0	15754	4.37	414
0	15795	4.38	380
0	15838	4.39	589
0	15869	4.4	592
0	15904	4.41	289
0	15951	4.42	221
0	15982	4.43	824
0	16013	4.44	304
0	16048	4.45	438
0	16089	4.46	568
0	16118	4.47	538
0	16167	4.48	258
0	16198	4.49	620
0	16229	4.5	773
0	16268	4.51	332
0	16317	4.52	328
0	16350	4.53	432
0	16383	4.54	877
0	16406	4.55	304
0	16443	4.56	603
0	16480	4.57	381
0	16519	4.58	308
0	16546	4.59	461
0	16593	4.6	367
0	16626	4.61	591
0	16661	4.62	434
0	16696	4.63	502
0	16725	4.64	264
0	16766	4.65	267
0	16797	4.66	475
0	16842	4.67	422
0	16883	4.68	87
0	16918	4.69	1022
0	16947	4.7	608
0	16982	4.71	255
0	17009	4.72	416
0	17038	4.73	445
0	17075	4.74	262
0	17100	4.75	547
0	17145	4.76	252
0	17174	4.77	308
0	17213	4.78	529
0	17246	4.79	631
0	17277	4.8	393
0	17312	4.81	284
0	17343	4.82	200
0	17388	4.83	830
0	17421	4.84	568
0	17460	4.85	293
0	17499	4.86	459
0	17534	4.87	848
0	17577	4.88	369
0	17616	4.89	599
0	17665	4.9	441
0	17704	4.91	818
0	17739	4.92	771
0	17768	4.93	363
0	17815	4.94	452
0	17854	4.95	529
0	17891	4.96	637
0	17926	4.97	399
0	17953	4.98	300
0	17974	4.99	798
0	18011	5	227
0	18048	5.01	437
0	18077	5.02	250
0	18110	5.03	317
0	18155	5.04	446
0	18204	5.05	318
0	18231	5.06	927
0	18260	5.07	412
0	18297	5.08	252
0	18328	5.09	136
0	18365	5.1	654
0	18392	5.11	492
0	18431	5.12	352
0	18468	5.13	629
0	18511	5.14	372
0	18550	5.15	479
0	18569	5.16	654
0	18604	5.17	172
0	18633	5.18	552
0	18664	5.19	309
0	18687	5.2	216
0	18720	5.21	150
0	18745	5.22	532
0	18762	5.23	387
0	18789	5.24	360
0	18810	5.25	345
0	18851	5.26	189
0	18882	5.27	642
0	18909	5.28	340
0	18942	5.29	288
0	18983	5.3	375
0	19026	5.31	354
0	19057	5.32	849
0	19090	5.33	333
0	19133	5.34	659
0	19182	5.35	695
0	19225	5.36	540
0	19260	5.37	263
0	19309	5.38	862
0	19356	5.39	415
0	19383	5.4	383
0	19410	5.41	308
0	19443	5.42	181
0	19474	5.43	939
0	19521	5.44	703
0	19562	5.45	564
0	19597	5.46	317
0	19636	5.47	900
0	19673	5.48	464
0	19708	5.49	306
0	19761	5.5	841
0	19804	5.51	175
0	19841	5.52	364
0	19876	5.53	592
0	19915	5.54	643
0	19958	5.55	488
0	19987	5.56	524
0	20012	5.57	610
0	20053	5.58	736
0	20086	5.59	605
0	20133	5.6	300
0	20174	5.61	836
0	20219	5.62	401
0	20254	5.63	753
0	20295	5.64	536
0	20332	5.65	503
0	20367	5.66	403
0	20392	5.67	284
0	20435	5.68	679
0	20468	5.69	544
0	20505	5.7	314
0	20548	5.71	494
0	20585	5.72	433
0	20608	5.73	108
0	20643	5.74	308
0	20678	5.75	370
0	20713	5.76	592
0	20740	5.77	509
0	20781	5.78	219
0	20814	5.79	558
0	20853	5.8	607
0	20878	5.81	544
0	20905	5.82	363
0	20944	5.83	388
0	20977	5.84	500
0	21014	5.85	395
0	21053	5.86	719
0	21082	5.87	510
0	21111	5.88	351
0	21134	5.89	268
0	21173	5.9	197
0	21198	5.91	632
0	21251	5.92	200
0	21282	5.93	636
0	21321	5.94	494
0	21350	5.95	361
0	21385	5.96	438
0	21426	5.97	332
0	21467	5.98	271
0	21492	5.99	1047
0	21521	6	226
0	21558	6.01	403
0	21589	6.02	662
0	21624	6.03	308
0	21663	6.04	438
0	21700	6.05	429
0	21745	6.06	335
0	21790	6.07	655
0	21829	6.08	789
0	21878	6.09	533
0	21915	6.1	666
0	21950	6.11	272
0	21981	6.12	719
0	22010	6.13	387
0	22053	6.14	254
0	22090	6.15	456
0	22123	6.16	553
0	22148	6.17	385
0	22197	6.18	231
0	22230	6.19	476
0	22257	6.2	544
0	22302	6.21	352
0	22343	6.22	442
0	22372	6.23	406
0	22421	6.24	191
0	22454	6.25	448
0	22485	6.26	904
0	22520	6.27	600
0	22551	6.28	262
0	22588	6.29	585
0	22615	6.3	368
0	22646	6.31	352
0	22667	6.32	269
0	22700	6.33	375
0	22731	6.34	460
0	22768	6.35	373
0	22795	6.36	279
0	22834	6.37	189
0	22867	6.38	758
0	22898	6.39	552
0	22937	6.4	451
0	22966	6.41	371
0	23017	6.42	418
0	23054	6.43	492
0	23087	6.44	484
0	23120	6.45	615
0	23149	6.46	411
0	23184	6.47	429
0	23221	6.48	517
0	23264	6.49	460
0	23299	6.5	661
0	23334	6.51	389
0	23361	6.52	103
0	23400	6.53	665
0	23429	6.54	591
0	23468	6.55	393
0	23531	6.56	422
0	23566	6.57	364
0	23607	6.58	1052
0	23640	6.59	309
0	23681	6.6	670
0	23710	6.61	730
0	23733	6.62	312
0	23768	6.63	319
0	23805	6.64	575
0	23826	6.65	308
0	23857	6.66	379
0	23898	6.67	345
0	23933	6.68	524
0	23974	6.69	234
0	24011	6.7	394
0	24054	6.71	74
0	24093	6.72	481
0	24130	6.73	535
0	24167	6.74	310
0	24200	6.75	419
0	24233	6.76	374
0	24256	6.77	625
0	24295	6.78	513
0	24338	6.79	487
0	24371	6.8	771
0	24400	6.81	321
0	24433	6.82	1058
0	24472	6.83	545
0	24509	6.84	359
0	24550	6.85	260
0	24589	6.86	1253
0	24614	6.87	622
0	24643	6.88	484
0	24684	6.89	349
0	24711	6.9	655
0	24746	6.91	383
0	24777	6.92	448
0	24812	6.93	318
0	24857	6.94	302
0	24890	6.95	644
0	24931	6.96	508
0	24962	6.97	305
0	25009	6.98	753
0	25042	6.99	536
0	25075	7	372
0	25134	7.01	443
0	25173	7.02	399
0	25212	7.03	694
0	25255	7.04	371
0	25292	7.05	531
0	25331	7.06	444
0	25368	7.07	723
0	25411	7.08	806
0	25440	7.09	741
0	25477	7.1	500
0	25516	7.11	319
0	25549	7.12	284
0	25586	7.13	637
0	25619	7.14	677
0	25646	7.15	418
0	25677	7.16	323
0	25718	7.17	458
0	25755	7.18	321
0	25784	7.19	318
0	25817	7.2	116
0	25842	7.21	899
0	25883	7.22	625
0	25906	7.23	390
0	25939	7.24	366
0	25970	7.25	394
0	26013	7.26	341
0	26046	7.27	407
0	26073	7.28	517
0	26112	7.29	347
0	26141	7.3	488
0	26178	7.31	474
0	26215	7.32	555
0	26250	7.33	478
0	26311	7.34	417
0	26344	7.35	628
0	26379	7.36	539
0	26412	7.37	217
0	26443	7.38	602
0	26476	7.39	390
0	26513	7.4	185
0	26542	7.41	254
0	26575	7.42	275
0	26612	7.43	511
0	26645	7.44	616
0	26692	7.45	586
0	26733	7.46	964
0	26770	7.47	98
0	26809	7.48	171
0	26834	7.49	167
0	26867	7.5	404
0	26906	7.51	787
0	26941	7.52	1097
0	26976	7.53	623
0	27021	7.54	303
0	27056	7.55	725
0	27095	7.56	723
0	27134	7.57	401
0	27157	7.58	545
0	27218	7.59	284
0	27255	7.6	835
0	27308	7.61	564
0	27343	7.62	680
0	27392	7.63	413
0	27427	7.64	233
0	27466	7.65	407
0	27515	7.66	656
0	27564	7.67	1089
0	27597	7.68	663
0	27630	7.69	518
0	27669	7.7	238
0	27712	7.71	519
0	27757	7.72	524
0	27800	7.73	692
0	27827	7.74	615
0	27864	7.75	214
0	27909	7.76	500
0	27938	7.77	482
0	27975	7.78	352
0	28004	7.79	550
0	28041	7.8	235
0	28074	7.81	559
0	28113	7.82	344
0	28142	7.83	643
0	28175	7.84	454
0	28202	7.85	519
0	28231	7.86	307
0	28256	7.87	193
0	28295	7.88	302
0	28328	7.89	377
0	28373	7.9	619
0	28418	7.91	488
0	28451	7.92	635
0	28488	7.93	581
0	28519	7.94	200
0	28552	7.95	823
0	28579	7.96	525
0	28616	7.97	343
0	28649	7.98	325
0	28692	7.99	527
0	28735	8	539
0	28760	8.01	426
0	28807	8.02	396
0	28838	8.03	495
0	28867	8.04	739
0	28918	8.05	251
0	28955	8.06	579
0	28992	8.07	323
0	29033	8.08	722
0	29064	8.09	601
0	29091	8.1	404
0	29126	8.11	606
0	29161	8.12	450
0	29202	8.13	310
0	29251	8.14	396
0	29286	8.15	831
0	29325	8.16	192
0	29354	8.17	608
0	29379	8.18	656
0	29422	8.19	210
0	29451	8.2	651
0	29492	8.21	343
0	29531	8.22	424
0	29566	8.23	352
0	29593	8.24	295
0	29634	8.25	509
0	29665	8.26	569
0	29706	8.27	291
0	29745	8.28	429
0	29784	8.29	564
0	29831	8.3	651
0	29860	8.31	824
0	29907	8.32	298
0	29946	8.33	513
0	29979	8.34	453
0	30006	8.35	272
0	30051	8.36	521
0	30086	8.37	463
0	30123	8.38	666
0	30152	8.39	583
0	30183	8.4	237
0	30230	8.41	454
0	30271	8.42	696
0	30306	8.43	440
0	30361	8.44	651
0	30408	8.45	253
0	30445	8.46	636
0	30476	8.47	540
0	30513	8.48	761
0	30548	8.49	604
0	30587	8.5	472
0	30616	8.51	415
0	30643	8.52	406
0	30694	8.53	366
0	30719	8.54	379
0	30758	8.55	245
0	30795	8.56	634
0	30838	8.57	330
0	30867	8.58	573
0	30902	8.59	696
0	30937	8.6	268
0	30960	8.61	491
0	31009	8.62	278
0	31046	8.63	426
0	31093	8.64	634
0	31124	8.65	783
0	31163	8.66	278
0	31192	8.67	614
0	31237	8.68	364
0	31264	8.69	515
0	31307	8.7	361
0	31340	8.71	485
0	31387	8.72	524
0	31432	8.73	341
0	31473	8.74	408
0	31496	8.75	460
0	31535	8.76	1084
0	31572	8.77	540
0	31611	8.78	455
0	31644	8.79	364
0	31681	8.8	605
0	31718	8.81	496
0	31749	8.82	264
0	31794	8.83	348
0	31825	8.84	701
0	31858	8.85	598
0	31891	8.86	550
0	31936	8.87	310
0	31975	8.88	725
0	32012	8.89	290
0	32053	8.9	591
0	32084	8.91	688
0	32115	8.92	578
0	32156	8.93	811
0	32185	8.94	446
0	32208	8.95	230
0	32253	8.96	225
0	32294	8.97	388
0	32327	8.98	609
0	32360	8.99	874
0	32399	9	212
0	32440	9.01	345
0	32477	9.02	477
0	32506	9.03	544
0	32541	9.04	669
0	32574	9.05	696
0	32615	9.06	481
0	32644	9.07	561
0	32687	9.08	394
0	32732	9.09	624
0	32757	9.1	660
0	32810	9.11	308
0	32843	9.12	360
0	32880	9.13	590
0	32925	9.14	666
0	32962	9.15	454
0	32991	9.16	494
0	33026	9.17	691
0	33059	9.18	285
0	33098	9.19	503
0	33125	9.2	262
0	33164	9.21	562
0	33209	9.22	391
0	33244	9.23	286
0	33275	9.24	926
0	33320	9.25	423
0	33351	9.26	551
0	33380	9.27	335
0	33413	9.28	285
0	33462	9.29	333
0	33491	9.3	277
0	33528	9.31	451
0	33569	9.32	863
0	33602	9.33	436
0	33637	9.34	620
0	33680	9.35	523
0	33719	9.36	801
0	33766	9.37	491
0	33811	9.38	802
0	33858	9.39	331
0	33893	9.4	812
0	33940	9.41	666
0	33979	9.42	383
0	34016	9.43	946
0	34055	9.44	723
0	34090	9.45	436
0	34125	9.46	307
0	34152	9.47	409
0	34181	9.48	435
0	34234	9.49	275
0	34273	9.5	783
0	34316	9.51	353
0	34351	9.52	401
0	34388	9.53	900
0	34429	9.54	276
0	34460	9.55	324
0	34497	9.56	641
0	34534	9.57	658
0	34569	9.58	351
0	34600	9.59	506
0	34639	9.6	284
0	34674	9.61	524
0	34705	9.62	457
0	34732	9.63	340
0	34765	9.64	250
0	34816	9.65	292
0	34867	9.66	783
0	34902	9.67	358
0	34929	9.68	486
0	34956	9.69	877
0	34985	9.7	241
0	35024	9.71	352
0	35053	9.72	522
0	35086	9.73	232
0	35111	9.74	498
0	35144	9.75	187
0	35191	9.76	303
0	35236	9.77	666
0	35273	9.78	465
0	35300	9.79	399
0	35333	9.8	297
0	35368	9.81	322
0	35401	9.82	772
0	35444	9.83	230
0	35473	9.84	339
0	35514	9.85	172
0	35559	9.86	245
0	35596	9.87	935
0	35639	9.88	1036
0	35674	9.89	638
0	35711	9.9	534
0	35750	9.91	441
0	35783	9.92	702
0	35812	9.93	226
0	35839	9.94	215
0	35884	9.95	791
0	35921	9.96	381
0	35950	9.97	192
0	35993	9.98	604
0	36024	9.99	390
0	36065	10	679
1	50	0.01	0
1	85	0.02	4
1	120	0.03	6
1	151	0.04	7
1	192	0.05	6
1	239	0.06	9
1	276	0.07	5
1	309	0.08	10
1	348	0.09	6
1	381	0.1	5
1	412	0.11	8
1	453	0.12	4
1	492	0.13	10
1	525	0.14	9
1	562	0.15	7
1	605	0.16	5
1	640	0.17	9
1	679	0.18	8
1	716	0.19	6
1	755	0.2	8
1	780	0.21	9
1	817	0.22	3
1	854	0.23	7
1	907	0.24	4
1	932	0.25	5
1	963	0.26	7
1	994	0.27	5
1	1037	0.28	6
1	1084	0.29	7
1	1117	0.3	8
1	1154	0.31	7
1	1193	0.32	7
1	1228	0.33	8
1	1265	0.34	6
1	1306	0.35	5
1	1337	0.36	9
1	1386	0.37	8
1	1419	0.38	8
1	1454	0.39	7
1	1499	0.4	8
1	1536	0.41	5
1	1571	0.42	5
1	1600	0.43	8
1	1633	0.44	5
1	1678	0.45	8
1	1711	0.46	5
1	1738	0.47	5
1	1763	0.48	4
1	1790	0.49	7
1	1829	0.5	6
1	1876	0.51	5
1	1915	0.52	8
1	1952	0.53	8
1	1985	0.54	8
1	2018	0.55	5
1	2057	0.56	9
1	2090	0.57	8
1	2135	0.58	7
1	2176	0.59	5
1	2203	0.6	6
1	2222	0.61	9
1	2245	0.62	6
1	2270	0.63	5
1	2313	0.64	5
1	2352	0.65	5
1	2377	0.66	8
1	2396	0.67	7
1	2433	0.68	3
1	2452	0.69	7
1	2479	0.7	3
1	2510	0.71	4
1	2553	0.72	5
1	2592	0.73	8
1	2633	0.74	7
1	2656	0.75	7
1	2697	0.76	6
1	2748	0.77	9
1	2783	0.78	7
1	2818	0.79	6
1	2847	0.8	8
1	2882	0.81	3
1	2919	0.82	8
1	2942	0.83	6
1	2985	0.84	3
1	3022	0.85	9
1	3057	0.86	4
1	3098	0.87	7
1	3127	0.88	4
1	3164	0.89	7
1	3189	0.9	8
1	3222	0.91	3
1	3269	0.92	7
1	3314	0.93	7
1	3351	0.94	9
1	3372	0.95	7
1	3415	0.96	4
1	3454	0.97	5
1	3499	0.98	6
1	3532	0.99	8
1	3575	1	5
1	3614	1.01	3
1	3647	1.02	6
1	3694	1.03	9
1	3733	1.04	7
1	3770	1.05	4
1	3809	1.06	2
1	3852	1.07	8
1	3887	1.08	4
1	3928	1.09	4
1	3959	1.1	5
1	3998	1.11	8
1	4031	1.12	7
1	4078	1.13	5
1	4113	1.14	6
1	4152	1.15	6
1	4181	1.16	6
1	4226	1.17	5
1	4255	1.18	7
1	4288	1.19	8
1	4319	1.2	6
1	4366	1.21	5
1	4395	1.22	6
1	4438	1.23	5
1	4479	1.24	7
1	4514	1.25	8
1	4557	1.26	9
1	4596	1.27	8
1	4631	1.28	9
1	4676	1.29	6
1	4707	1.3	7
1	4734	1.31	8
1	4765	1.32	6
1	4806	1.33	6
1	4837	1.34	10
1	4884	1.35	6
1	4927	1.36	6
1	4970	1.37	5
1	4999	1.38	6
1	5028	1.39	4
1	5057	1.4	6
1	5100	1.41	8
1	5137	1.42	8
1	5172	1.43	6
1	5207	1.44	5
1	5242	1.45	6
1	5279	1.46	7
1	5306	1.47	7
1	5339	1.48	6
1	5380	1.49	6
1	5415	1.5	6
1	5462	1.51	4
1	5505	1.52	7
1	5528	1.53	7
1	5561	1.54	5
1	5598	1.55	8
1	5635	1.56	5
1	5676	1.57	2
1	5717	1.58	8
1	5748	1.59	4
1	5781	1.6	3
1	5818	1.61	5
1	5847	1.62	8
1	5890	1.63	6
1	5921	1.64	6
1	5962	1.65	7
1	5995	1.66	6
1	6040	1.67	7
1	6081	1.68	4
1	6114	1.69	6
1	6151	1.7	5
1	6182	1.71	8
1	6211	1.72	6
1	6250	1.73	5
1	6283	1.74	7
1	6314	1.75	8
1	6367	1.76	9
1	6404	1.77	4
1	6435	1.78	5
1	6480	1.79	6
1	6525	1.8	6
1	6566	1.81	9
1	6595	1.82	3
1	6632	1.83	5
1	6659	1.84	4
1	6690	1.85	9
1	6725	1.86	5
1	6770	1.87	7
1	6799	1.88	8
1	6832	1.89	6
1	6869	1.9	7
1	6906	1.91	6
1	6955	1.92	9
1	6988	1.93	7
1	7015	1.94	6
1	7046	1.95	6
1	7083	1.96	7
1	7114	1.97	7
1	7167	1.98	7
1	7204	1.99	7
1	7249	2	9
1	7292	2.01	5
1	7323	2.02	6
1	7352	2.03	7
1	7399	2.04	5
1	7432	2.05	8
1	7463	2.06	7
1	7502	2.07	4
1	7523	2.08	8
1	7564	2.09	4
1	7599	2.1	6
1	7630	2.11	9
1	7669	2.12	7
1	7720	2.13	8
1	7759	2.14	6
1	7782	2.15	6
1	7825	2.16	7
1	7860	2.17	7
1	7897	2.18	6
1	7934	2.19	7
1	7967	2.2	3
1	8000	2.21	8
1	8035	2.22	7
1	8090	2.23	6
1	8131	2.24	6
1	8156	2.25	5
1	8185	2.26	2
1	8228	2.27	9
1	8263	2.28	7
1	8292	2.29	7
1	8329	2.3	5
1	8358	2.31	7
1	8399	2.32	7
1	8426	2.33	5
1	8459	2.34	7
1	8490	2.35	4
1	8511	2.36	8
1	8540	2.37	3
1	8595	2.38	7
1	8630	2.39	7
1	8661	2.4	8
1	8692	2.41	8
1	8729	2.42	5
1	8766	2.43	8
1	8805	2.44	7
1	8858	2.45	6
1	8887	2.46	9
1	8918	2.47	6
1	8947	2.48	5
1	8978	2.49	6
1	9017	2.5	7
1	9036	2.51	7
1	9073	2.52	4
1	9112	2.53	5
1	9141	2.54	4
1	9180	2.55	8
1	9215	2.56	7
1	9258	2.57	7
1	9295	2.58	8
1	9334	2.59	6
1	9367	2.6	7
1	9404	2.61	8
1	9427	2.62	7
1	9460	2.63	4
1	9501	2.64	10
1	9546	2.65	8
1	9577	2.66	6
1	9612	2.67	10
1	9641	2.68	8
1	9670	2.69	5
1	9705	2.7	4
1	9758	2.71	2
1	9787	2.72	3
1	9820	2.73	5
1	9851	2.74	4
1	9886	2.75	4
1	9919	2.76	8
1	9970	2.77	9
1	10013	2.78	6
1	10040	2.79	7
1	10091	2.8	7
1	10154	2.81	9
1	10189	2.82	10
1	10220	2.83	6
1	10257	2.84	7
1	10286	2.85	7
1	10321	2.86	6
1	10358	2.87	7
1	10401	2.88	7
1	10436	2.89	9
1	10471	2.9	6
1	10516	2.91	5
1	10543	2.92	4
1	10580	2.93	8
1	10619	2.94	7
1	10648	2.95	6
1	10689	2.96	5
1	10730	2.97	7
1	10763	2.98	7
1	10798	2.99	7
1	10827	3	7
1	10866	3.01	7
1	10897	3.02	7
1	10934	3.03	6
1	10957	3.04	6
1	10996	3.05	4
1	11045	3.06	8
1	11088	3.07	8
1	11131	3.08	10
1	11162	3.09	3
1	11193	3.1	3
1	11234	3.11	7
1	11279	3.12	8
1	11302	3.13	9
1	11337	3.14	4
1	11384	3.15	6
1	11425	3.16	6
1	11454	3.17	9
1	11479	3.18	6
1	11504	3.19	3
1	11545	3.2	5
1	11584	3.21	8
1	11607	3.22	2
1	11644	3.23	3
1	11679	3.24	6
1	11708	3.25	4
1	11731	3.26	7
1	11770	3.27	6
1	11797	3.28	6
1	11830	3.29	7
1	11879	3.3	5
1	11924	3.31	10
1	11975	3.32	8
1	12008	3.33	8
1	12035	3.34	7
1	12076	3.35	5
1	12111	3.36	5
1	12152	3.37	7
1	12187	3.38	9
1	12222	3.39	8
1	12255	3.4	8
1	12280	3.41	7
1	12311	3.42	6
1	12352	3.43	7
1	12399	3.44	8
1	12438	3.45	7
1	12479	3.46	9
1	12518	3.47	7
1	12563	3.48	7
1	12606	3.49	4
1	12647	3.5	9
1	12668	3.51	8
1	12697	3.52	3
1	12734	3.53	7
1	12773	3.54	4
1	12816	3.55	3
1	12843	3.56	4
1	12886	3.57	5
1	12925	3.58	9
1	12964	3.59	9
1	13001	3.6	7
1	13028	3.61	4
1	13069	3.62	5
1	13106	3.63	4
1	13141	3.64	10
1	13166	3.65	5
1	13199	3.66	4
1	13228	3.67	7
1	13275	3.68	7
1	13318	3.69	7
1	13357	3.7	5
1	13388	3.71	4
1	13417	3.72	5
1	13452	3.73	7
1	13489	3.74	4
1	13528	3.75	9
1	13563	3.76	3
1	13598	3.77	6
1	13625	3.78	6
1	13670	3.79	5
1	13699	3.8	7
1	13740	3.81	4
1	13761	3.82	4
1	13796	3.83	9
1	13835	3.84	8
1	13880	3.85	7
1	13915	3.86	9
1	13966	3.87	6
1	14005	3.88	8
1	14054	3.89	9
1	14097	3.9	6
1	14138	3.91	10
1	14175	3.92	9
1	14218	3.93	5
1	14249	3.94	7
1	14290	3.95	6
1	14323	3.96	9
1	14364	3.97	8
1	14387	3.98	4
1	14426	3.99	7
1	14457	4	4
1	14502	4.01	7
1	14533	4.02	7
1	14560	4.03	3
1	14595	4.04	8
1	14634	4.05	8
1	14673	4.06	2
1	14708	4.07	10
1	14743	4.08	8
1	14780	4.09	6
1	14807	4.1	5
1	14842	4.11	5
1	14885	4.12	7
1	14910	4.13	8
1	14927	4.14	5
1	14958	4.15	5
1	14993	4.16	6
1	15040	4.17	6
1	15083	4.18	2
1	15108	4.19	7
1	15139	4.2	9
1	15184	4.21	7
1	15215	4.22	8
1	15250	4.23	5
1	15287	4.24	5
1	15314	4.25	9
1	15361	4.26	7
1	15388	4.27	6
1	15433	4.28	4
1	15466	4.29	4
1	15491	4.3	6
1	15522	4.31	8
1	15567	4.32	8
1	15600	4.33	7
1	15643	4.34	7
1	15688	4.35	7
1	15723	4.36	10
1	15754	4.37	7
1	15795	4.38	7
1	15838	4.39	8
1	15869	4.4	9
1	15904	4.41	5
1	15951	4.42	6
1	15982	4.43	8
1	16013	4.44	7
1	16048	4.45	6
1	16089	4.46	5
1	16118	4.47	7
1	16167	4.48	6
1	16198	4.49	8
1	16229	4.5	9
1	16268	4.51	6
1	16317	4.52	8
1	16350	4.53	3
1	16383	4.54	9
1	16406	4.55	4
1	16443	4.56	7
1	16480	4.57	8
1	16519	4.58	7
1	16546	4.59	8
1	16593	4.6	6
1	16626	4.61	9
1	16661	4.62	8
1	16696	4.63	8
1	16725	4.64	6
1	16766	4.65	6
1	16797	4.66	6
1	16842	4.67	8
1	16883	4.68	2
1	16918	4.69	8
1	16947	4.7	8
1	16982	4.71	6
1	17009	4.72	6
1	17038	4.73	6
1	17075	4.74	5
1	17100	4.75	8
1	17145	4.76	5
1	17174	4.77	5
1	17213	4.78	7
1	17246	4.79	8
1	17277	4.8	7
1	17312	4.81	6
1	17343	4.82	7
1	17388	4.83	8
1	17421	4.84	9
1	17460	4.85	5
1	17499	4.86	7
1	17534	4.87	10
1	17577	4.88	8
1	17616	4.89	6
1	17665	4.9	6
1	17704	4.91	7
1	17739	4.92	7
1	17768	4.93	5
1	17815	4.94	6
1	17854	4.95	7
1	17891	4.96	8
1	17926	4.97	6
1	17953	4.98	3
1	17974	4.99	8
1	18011	5	4
1	18048	5.01	6
1	18077	5.02	5
1	18110	5.03	7
1	18155	5.04	6
1	18204	5.05	4
1	18231	5.06	9
1	18260	5.07	7
1	18297	5.08	5
1	18328	5.09	5
1	18365	5.1	6
1	18392	5.11	7
1	18431	5.12	5
1	18468	5.13	9
1	18511	5.14	8
1	18550	5.15	4
1	18569	5.16	8
1	18604	5.17	4
1	18633	5.18	6
1	18664	5.19	8
1	18687	5.2	4
1	18720	5.21	4
1	18745	5.22	9
1	18762	5.23	5
1	18789	5.24	6
1	18810	5.25	5
1	18851	5.26	4
1	18882	5.27	8
1	18909	5.28	4
1	18942	5.29	6
1	18983	5.3	4
1	19026	5.31	6
1	19057	5.32	6
1	19090	5.33	5
1	19133	5.34	9
1	19182	5.35	8
1	19225	5.36	6
1	19260	5.37	4
1	19309	5.38	9
1	19356	5.39	6
1	19383	5.4	4
1	19410	5.41	5
1	19443	5.42	2
1	19474	5.43	7
1	19521	5.44	8
1	19562	5.45	6
1	19597	5.46	3
1	19636	5.47	10
1	19673	5.48	7
1	19708	5.49	4
1	19761	5.5	7
1	19804	5.51	2
1	19841	5.52	5
1	19876	5.53	8
1	19915	5.54	7
1	19958	5.55	3
1	19987	5.56	6
1	20012	5.57	5
1	20053	5.58	6
1	20086	5.59	8
1	20133	5.6	7
1	20174	5.61	9
1	20219	5.62	7
1	20254	5.63	9
1	20295	5.64	9
1	20332	5.65	6
1	20367	5.66	7
1	20392	5.67	5
1	20435	5.68	6
1	20468	5.69	8
1	20505	5.7	6
1	20548	5.71	5
1	20585	5.72	6
1	20608	5.73	5
1	20643	5.74	5
1	20678	5.75	4
1	20713	5.76	7
1	20740	5.77	6
1	20781	5.78	5
1	20814	5.79	6
1	20853	5.8	7
1	20878	5.81	7
1	20905	5.82	6
1	20944	5.83	7
1	20977	5.84	5
1	21014	5.85	6
1	21053	5.86	9
1	21082	5.87	7
1	21111	5.88	5
1	21134	5.89	7
1	21173	5.9	4
1	21198	5.91	8
1	21251	5.92	4
1	21282	5.93	7
1	21321	5.94	6
1	21350	5.95	8
1	21385	5.96	7
1	21426	5.97	6
1	21467	5.98	4
1	21492	5.99	10
1	21521	6	5
1	21558	6.01	6
1	21589	6.02	8
1	21624	6.03	5
1	21663	6.04	9
1	21700	6.05	5
1	21745	6.06	7
1	21790	6.07	8
1	21829	6.08	10
1	21878	6.09	8
1	21915	6.1	7
1	21950	6.11	5
1	21981	6.12	10
1	22010	6.13	7
1	22053	6.14	7
1	22090	6.15	6
1	22123	6.16	8
1	22148	6.17	7
1	22197	6.18	7
1	22230	6.19	8
1	22257	6.2	7
1	22302	6.21	6
1	22343	6.22	9
1	22372	6.23	6
1	22421	6.24	2
1	22454	6.25	3
1	22485	6.26	9
1	22520	6.27	5
1	22551	6.28	5
1	22588	6.29	7
1	22615	6.3	7
1	22646	6.31	7
1	22667	6.32	6
1	22700	6.33	5
1	22731	6.34	7
1	22768	6.35	7
1	22795	6.36	7
1	22834	6.37	2
1	22867	6.38	7
1	22898	6.39	6
1	22937	6.4	5
1	22966	6.41	7
1	23017	6.42	6
1	23054	6.43	7
1	23087	6.44	6
1	23120	6.45	9
1	23149	6.46	8
1	23184	6.47	5
1	23221	6.48	6
1	23264	6.49	6
1	23299	6.5	9
1	23334	6.51	6
1	23361	6.52	3
1	23400	6.53	9
1	23429	6.54	7
1	23468	6.55	6
1	23531	6.56	7
1	23566	6.57	3
1	23607	6.58	8
1	23640	6.59	5
1	23681	6.6	9
1	23710	6.61	8
1	23733	6.62	4
1	23768	6.63	5
1	23805	6.64	6
1	23826	6.65	7
1	23857	6.66	6
1	23898	6.67	5
1	23933	6.68	9
1	23974	6.69	5
1	24011	6.7	6
1	24054	6.71	1
1	24093	6.72	5
1	24130	6.73	6
1	24167	6.74	4
1	24200	6.75	5
1	24233	6.76	3
1	24256	6.77	4
1	24295	6.78	6
1	24338	6.79	7
1	24371	6.8	4
1	24400	6.81	2
1	24433	6.82	6
1	24472	6.83	5
1	24509	6.84	3
1	24550	6.85	5
1	24589	6.86	7
1	24614	6.87	6
1	24643	6.88	6
1	24684	6.89	6
1	24711	6.9	8
1	24746	6.91	6
1	24777	6.92	8
1	24812	6.93	7
1	24857	6.94	5
1	24890	6.95	8
1	24931	6.96	8
1	24962	6.97	5
1	25009	6.98	8
1	25042	6.99	9
1	25075	7	5
1	25134	7.01	8
1	25173	7.02	8
1	25212	7.03	4
1	25255	7.04	4
1	25292	7.05	4
1	25331	7.06	6
1	25368	7.07	8
1	25411	7.08	7
1	25440	7.09	8
1	25477	7.1	6
1	25516	7.11	5
1	25549	7.12	6
1	25586	7.13	7
1	25619	7.14	7
1	25646	7.15	8
1	25677	7.16	6
1	25718	7.17	5
1	25755	7.18	7
1	25784	7.19	4
1	25817	7.2	3
1	25842	7.21	9
1	25883	7.22	4
1	25906	7.23	7
1	25939	7.24	6
1	25970	7.25	8
1	26013	7.26	7
1	26046	7.27	6
1	26073	7.28	7
1	26112	7.29	7
1	26141	7.3	9
1	26178	7.31	6
1	26215	7.32	9
1	26250	7.33	6
1	26311	7.34	5
1	26344	7.35	7
1	26379	7.36	7
1	26412	7.37	4
1	26443	7.38	8
1	26476	7.39	6
1	26513	7.4	3
1	26542	7.41	4
1	26575	7.42	3
1	26612	7.43	3
1	26645	7.44	6
1	26692	7.45	5
1	26733	7.46	9
1	26770	7.47	2
1	26809	7.48	2
1	26834	7.49	1
1	26867	7.5	4
1	26906	7.51	5
1	26941	7.52	8
1	26976	7.53	8
1	27021	7.54	5
1	27056	7.55	7
1	27095	7.56	8
1	27134	7.57	4
1	27157	7.58	10
1	27218	7.59	4
1	27255	7.6	10
1	27308	7.61	8
1	27343	7.62	9
1	27392	7.63	8
1	27427	7.64	6
1	27466	7.65	7
1	27515	7.66	9
1	27564	7.67	10
1	27597	7.68	8
1	27630	7.69	7
1	27669	7.7	7
1	27712	7.71	8
1	27757	7.72	9
1	27800	7.73	6
1	27827	7.74	9
1	27864	7.75	6
1	27909	7.76	7
1	27938	7.77	7
1	27975	7.78	7
1	28004	7.79	8
1	28041	7.8	6
1	28074	7.81	7
1	28113	7.82	6
1	28142	7.83	6
1	28175	7.84	6
1	28202	7.85	7
1	28231	7.86	6
1	28256	7.87	5
1	28295	7.88	6
1	28328	7.89	6
1	28373	7.9	7
1	28418	7.91	8
1	28451	7.92	9
1	28488	7.93	6
1	28519	7.94	4
1	28552	7.95	8
1	28579	7.96	7
1	28616	7.97	4
1	28649	7.98	5
1	28692	7.99	7
1	28735	8	8
1	28760	8.01	6
1	28807	8.02	5
1	28838	8.03	9
1	28867	8.04	8
1	28918	8.05	6
1	28955	8.06	7
1	28992	8.07	4
1	29033	8.08	5
1	29064	8.09	5
1	29091	8.1	6
1	29126	8.11	8
1	29161	8.12	7
1	29202	8.13	6
1	29251	8.14	4
1	29286	8.15	9
1	29325	8.16	4
1	29354	8.17	6
1	29379	8.18	5
1	29422	8.19	6
1	29451	8.2	8
1	29492	8.21	7
1	29531	8.22	6
1	29566	8.23	5
1	29593	8.24	4
1	29634	8.25	7
1	29665	8.26	9
1	29706	8.27	7
1	29745	8.28	8
1	29784	8.29	8
1	29831	8.3	9
1	29860	8.31	8
1	29907	8.32	7
1	29946	8.33	6
1	29979	8.34	7
1	30006	8.35	4
1	30051	8.36	7
1	30086	8.37	7
1	30123	8.38	8
1	30152	8.39	7
1	30183	8.4	7
1	30230	8.41	7
1	30271	8.42	7
1	30306	8.43	9
1	30361	8.44	8
1	30408	8.45	4
1	30445	8.46	6
1	30476	8.47	8
1	30513	8.48	8
1	30548	8.49	7
1	30587	8.5	8
1	30616	8.51	8
1	30643	8.52	7
1	30694	8.53	7
1	30719	8.54	7
1	30758	8.55	5
1	30795	8.56	9
1	30838	8.57	8
1	30867	8.58	8
1	30902	8.59	7
1	30937	8.6	9
1	30960	8.61	7
1	31009	8.62	6
1	31046	8.63	4
1	31093	8.64	8
1	31124	8.65	6
1	31163	8.66	4
1	31192	8.67	7
1	31237	8.68	6
1	31264	8.69	6
1	31307	8.7	4
1	31340	8.71	8
1	31387	8.72	8
1	31432	8.73	3
1	31473	8.74	3
1	31496	8.75	6
1	31535	8.76	9
1	31572	8.77	7
1	31611	8.78	9
1	31644	8.79	6
1	31681	8.8	7
1	31718	8.81	9
1	31749	8.82	4
1	31794	8.83	5
1	31825	8.84	8
1	31858	8.85	5
1	31891	8.86	6
1	31936	8.87	5
1	31975	8.88	6
1	32012	8.89	3
1	32053	8.9	6
1	32084	8.91	6
1	32115	8.92	4
1	32156	8.93	7
1	32185	8.94	6
1	32208	8.95	4
1	32253	8.96	3
1	32294	8.97	3
1	32327	8.98	7
1	32360	8.99	7
1	32399	9	3
1	32440	9.01	5
1	32477	9.02	8
1	32506	9.03	4
1	32541	9.04	6
1	32574	9.05	7
1	32615	9.06	8
1	32644	9.07	8
1	32687	9.08	7
1	32732	9.09	8
1	32757	9.1	8
1	32810	9.11	4
1	32843	9.12	4
1	32880	9.13	8
1	32925	9.14	8
1	32962	9.15	7
1	32991	9.16	6
1	33026	9.17	7
1	33059	9.18	3
1	33098	9.19	8
1	33125	9.2	6
1	33164	9.21	6
1	33209	9.22	4
1	33244	9.23	5
1	33275	9.24	8
1	33320	9.25	8
1	33351	9.26	10
1	33380	9.27	7
1	33413	9.28	7
1	33462	9.29	6
1	33491	9.3	3
1	33528	9.31	4
1	33569	9.32	8
1	33602	9.33	6
1	33637	9.34	8
1	33680	9.35	8
1	33719	9.36	9
1	33766	9.37	6
1	33811	9.38	9
1	33858	9.39	5
1	33893	9.4	7
1	33940	9.41	9
1	33979	9.42	6
1	34016	9.43	8
1	34055	9.44	9
1	34090	9.45	7
1	34125	9.46	8
1	34152	9.47	5
1	34181	9.48	6
1	34234	9.49	5
1	34273	9.5	8
1	34316	9.51	6
1	34351	9.52	6
1	34388	9.53	8
1	34429	9.54	7
1	34460	9.55	5
1	34497	9.56	9
1	34534	9.57	9
1	34569	9.58	7
1	34600	9.59	8
1	34639	9.6	6
1	34674	9.61	6
1	34705	9.62	9
1	34732	9.63	7
1	34765	9.64	4
1	34816	9.65	6
1	34867	9.66	6
1	34902	9.67	7
1	34929	9.68	3
1	34956	9.69	9
1	34985	9.7	4
1	35024	9.71	5
1	35053	9.72	8
1	35086	9.73	6
1	35111	9.74	9
1	35144	9.75	6
1	35191	9.76	4
1	35236	9.77	9
1	35273	9.78	5
1	35300	9.79	9
1	35333	9.8	4
1	35368	9.81	6
1	35401	9.82	8
1	35444	9.83	3
1	35473	9.84	5
1	35514	9.85	3
1	35559	9.86	3
1	35596	9.87	7
1	35639	9.88	7
1	35674	9.89	9
1	35711	9.9	6
1	35750	9.91	6
1	35783	9.92	6
1	35812	9.93	6
1	35839	9.94	3
1	35884	9.95	8
1	35921	9.96	4
1	35950	9.97	3
1	35993	9.98	2
1	36024	9.99	6
1	36065	10	7
2	50	0.01	0
2	85	0.02	130
2	120	0.03	46
2	151	0.04	0
2	192	0.05	0
2	239	0.06	72
2	276	0.07	0
2	309	0.08	20
2	348	0.09	0
2	381	0.1	49
2	412	0.11	77
2	453	0.12	0
2	492	0.13	73
2	525	0.14	63
2	562	0.15	12
2	605	0.16	0
2	640	0.17	119
2	679	0.18	83
2	716	0.19	2
2	755	0.2	44
2	780	0.21	16
2	817	0.22	12
2	854	0.23	0
2	907	0.24	0
2	932	0.25	0
2	963	0.26	221
2	994	0.27	1
2	1037	0.28	49
2	1084	0.29	0
2	1117	0.3	1
2	1154	0.31	23
2	1193	0.32	0
2	1228	0.33	55
2	1265	0.34	0
2	1306	0.35	0
2	1337	0.36	4
2	1386	0.37	65
2	1419	0.38	69
2	1454	0.39	96
2	1499	0.4	86
2	1536	0.41	0
2	1571	0.42	8
2	1600	0.43	29
2	1633	0.44	0
2	1678	0.45	34
2	1711	0.46	24
2	1738	0.47	55
2	1763	0.48	213
2	1790	0.49	21
2	1829	0.5	0
2	1876	0.51	0
2	1915	0.52	232
2	1952	0.53	39
2	1985	0.54	125
2	2018	0.55	0
2	2057	0.56	43
2	2090	0.57	18
2	2135	0.58	144
2	2176	0.59	9
2	2203	0.6	21
2	2222	0.61	26
2	2245	0.62	96
2	2270	0.63	0
2	2313	0.64	0
2	2352	0.65	35
2	2377	0.66	93
2	2396	0.67	0
2	2433	0.68	72
2	2452	0.69	0
2	2479	0.7	55
2	2510	0.71	0
2	2553	0.72	71
2	2592	0.73	32
2	2633	0.74	83
2	2656	0.75	26
2	2697	0.76	3
2	2748	0.77	28
2	2783	0.78	0
2	2818	0.79	14
2	2847	0.8	43
2	2882	0.81	0
2	2919	0.82	183
2	2942	0.83	48
2	2985	0.84	0
2	3022	0.85	0
2	3057	0.86	93
2	3098	0.87	0
2	3127	0.88	0
2	3164	0.89	260
2	3189	0.9	0
2	3222	0.91	0
2	3269	0.92	0
2	3314	0.93	86
2	3351	0.94	121
2	3372	0.95	23
2	3415	0.96	0
2	3454	0.97	13
2	3499	0.98	0
2	3532	0.99	60
2	3575	1	0
2	3614	1.01	372
2	3647	1.02	0
2	3694	1.03	48
2	3733	1.04	91
2	3770	1.05	50
2	3809	1.06	43
2	3852	1.07	46
2	3887	1.08	0
2	3928	1.09	113
2	3959	1.1	13
2	3998	1.11	82
2	4031	1.12	4
2	4078	1.13	0
2	4113	1.14	99
2	4152	1.15	0
2	4181	1.16	39
2	4226	1.17	0
2	4255	1.18	67
2	4288	1.19	11
2	4319	1.2	88
2	4366	1.21	0
2	4395	1.22	0
2	4438	1.23	135
2	4479	1.24	26
2	4514	1.25	93
2	4557	1.26	0
2	4596	1.27	48
2	4631	1.28	0
2	4676	1.29	67
2	4707	1.3	60
2	4734	1.31	0
2	4765	1.32	0
2	4806	1.33	0
2	4837	1.34	55
2	4884	1.35	29
2	4927	1.36	136
2	4970	1.37	0
2	4999	1.38	252
2	5028	1.39	0
2	5057	1.4	50
2	5100	1.41	0
2	5137	1.42	69
2	5172	1.43	100
2	5207	1.44	0
2	5242	1.45	25
2	5279	1.46	104
2	5306	1.47	96
2	5339	1.48	0
2	5380	1.49	0
2	5415	1.5	51
2	5462	1.51	62
2	5505	1.52	0
2	5528	1.53	66
2	5561	1.54	0
2	5598	1.55	0
2	5635	1.56	0
2	5676	1.57	0
2	5717	1.58	25
2	5748	1.59	68
2	5781	1.6	0
2	5818	1.61	0
2	5847	1.62	149
2	5890	1.63	30
2	5921	1.64	46
2	5962	1.65	49
2	5995	1.66	0
2	6040	1.67	0
2	6081	1.68	131
2	6114	1.69	0
2	6151	1.7	180
2	6182	1.71	0
2	6211	1.72	19
2	6250	1.73	0
2	6283	1.74	12
2	6314	1.75	129
2	6367	1.76	4
2	6404	1.77	0
2	6435	1.78	0
2	6480	1.79	0
2	6525	1.8	41
2	6566	1.81	60
2	6595	1.82	0
2	6632	1.83	164
2	6659	1.84	0
2	6690	1.85	19
2	6725	1.86	0
2	6770	1.87	52
2	6799	1.88	0
2	6832	1.89	4
2	6869	1.9	20
2	6906	1.91	15
2	6955	1.92	0
2	6988	1.93	0
2	7015	1.94	0
2	7046	1.95	71
2	7083	1.96	53
2	7114	1.97	55
2	7167	1.98	69
2	7204	1.99	60
2	7249	2	30
2	7292	2.01	1
2	7323	2.02	31
2	7352	2.03	58
2	7399	2.04	0
2	7432	2.05	64
2	7463	2.06	13
2	7502	2.07	30
2	7523	2.08	132
2	7564	2.09	0
2	7599	2.1	0
2	7630	2.11	63
2	7669	2.12	116
2	7720	2.13	60
2	7759	2.14	0
2	7782	2.15	35
2	7825	2.16	0
2	7860	2.17	0
2	7897	2.18	0
2	7934	2.19	118
2	7967	2.2	54
2	8000	2.21	0
2	8035	2.22	14
2	8090	2.23	66
2	8131	2.24	0
2	8156	2.25	43
2	8185	2.26	0
2	8228	2.27	18
2	8263	2.28	153
2	8292	2.29	0
2	8329	2.3	20
2	8358	2.31	49
2	8399	2.32	73
2	8426	2.33	0
2	8459	2.34	0
2	8490	2.35	54
2	8511	2.36	0
2	8540	2.37	104
2	8595	2.38	18
2	8630	2.39	0
2	8661	2.4	62
2	8692	2.41	0
2	8729	2.42	30
2	8766	2.43	61
2	8805	2.44	115
2	8858	2.45	77
2	8887	2.46	0
2	8918	2.47	0
2	8947	2.48	0
2	8978	2.49	62
2	9017	2.5	146
2	9036	2.51	0
2	9073	2.52	70
2	9112	2.53	51
2	9141	2.54	0
2	9180	2.55	130
2	9215	2.56	42
2	9258	2.57	74
2	9295	2.58	124
2	9334	2.59	0
2	9367	2.6	0
2	9404	2.61	107
2	9427	2.62	50
2	9460	2.63	0
2	9501	2.64	50
2	9546	2.65	88
2	9577	2.66	0
2	9612	2.67	43
2	9641	2.68	71
2	9670	2.69	0
2	9705	2.7	0
2	9758	2.71	0
2	9787	2.72	75
2	9820	2.73	304
2	9851	2.74	0
2	9886	2.75	0
2	9919	2.76	32
2	9970	2.77	51
2	10013	2.78	69
2	10040	2.79	130
2	10091	2.8	0
2	10154	2.81	101
2	10189	2.82	47
2	10220	2.83	54
2	10257	2.84	0
2	10286	2.85	0
2	10321	2.86	75
2	10358	2.87	58
2	10401	2.88	60
2	10436	2.89	0
2	10471	2.9	157
2	10516	2.91	39
2	10543	2.92	0
2	10580	2.93	88
2	10619	2.94	93
2	10648	2.95	56
2	10689	2.96	10
2	10730	2.97	108
2	10763	2.98	74
2	10798	2.99	0
2	10827	3	71
2	10866	3.01	5
2	10897	3.02	36
2	10934	3.03	57
2	10957	3.04	0
2	10996	3.05	85
2	11045	3.06	61
2	11088	3.07	158
2	11131	3.08	18
2	11162	3.09	0
2	11193	3.1	0
2	11234	3.11	0
2	11279	3.12	50
2	11302	3.13	58
2	11337	3.14	0
2	11384	3.15	62
2	11425	3.16	0
2	11454	3.17	191
2	11479	3.18	72
2	11504	3.19	67
2	11545	3.2	0
2	11584	3.21	0
2	11607	3.22	0
2	11644	3.23	0
2	11679	3.24	0
2	11708	3.25	0
2	11731	3.26	259
2	11770	3.27	70
2	11797	3.28	0
2	11830	3.29	23
2	11879	3.3	34
2	11924	3.31	90
2	11975	3.32	0
2	12008	3.33	13
2	12035	3.34	109
2	12076	3.35	50
2	12111	3.36	0
2	12152	3.37	98
2	12187	3.38	100
2	12222	3.39	0
2	12255	3.4	130
2	12280	3.41	59
2	12311	3.42	0
2	12352	3.43	58
2	12399	3.44	67
2	12438	3.45	42
2	12479	3.46	4
2	12518	3.47	0
2	12563	3.48	85
2	12606	3.49	173
2	12647	3.5	63
2	12668	3.51	92
2	12697	3.52	0
2	12734	3.53	105
2	12773	3.54	93
2	12816	3.55	0
2	12843	3.56	0
2	12886	3.57	13
2	12925	3.58	49
2	12964	3.59	74
2	13001	3.6	63
2	13028	3.61	0
2	13069	3.62	100
2	13106	3.63	0
2	13141	3.64	15
2	13166	3.65	205
2	13199	3.66	0
2	13228	3.67	103
2	13275	3.68	0
2	13318	3.69	53
2	13357	3.7	51
2	13388	3.71	139
2	13417	3.72	57
2	13452	3.73	46
2	13489	3.74	0
2	13528	3.75	91
2	13563	3.76	0
2	13598	3.77	0
2	13625	3.78	162
2	13670	3.79	40
2	13699	3.8	0
2	13740	3.81	0
2	13761	3.82	0
2	13796	3.83	135
2	13835	3.84	18
2	13880	3.85	3
2	13915	3.86	51
2	13966	3.87	3
2	14005	3.88	4
2	14054	3.89	85
2	14097	3.9	1
2	14138	3.91	46
2	14175	3.92	14
2	14218	3.93	0
2	14249	3.94	0
2	14290	3.95	0
2	14323	3.96	193
2	14364	3.97	17
2	14387	3.98	27
2	14426	3.99	0
2	14457	4	0
2	14502	4.01	14
2	14533	4.02	136
2	14560	4.03	0
2	14595	4.04	39
2	14634	4.05	0
2	14673	4.06	27
2	14708	4.07	95
2	14743	4.08	48
2	14780	4.09	58
2	14807	4.1	137
2	14842	4.11	40
2	14885	4.12	0
2	14910	4.13	0
2	14927	4.14	0
2	14958	4.15	55
2	14993	4.16	52
2	15040	4.17	0
2	15083	4.18	25
2	15108	4.19	16
2	15139	4.2	33
2	15184	4.21	0
2	15215	4.22	0
2	15250	4.23	67
2	15287	4.24	0
2	15314	4.25	209
2	15361	4.26	70
2	15388	4.27	58
2	15433	4.28	0
2	15466	4.29	139
2	15491	4.3	0
2	15522	4.31	112
2	15567	4.32	0
2	15600	4.33	67
2	15643	4.34	128
2	15688	4.35	0
2	15723	4.36	55
2	15754	4.37	0
2	15795	4.38	2
2	15838	4.39	66
2	15869	4.4	82
2	15904	4.41	48
2	15951	4.42	0
2	15982	4.43	197
2	16013	4.44	112
2	16048	4.45	58
2	16089	4.46	182
2	16118	4.47	0
2	16167	4.48	57
2	16198	4.49	91
2	16229	4.5	97
2	16268	4.51	68
2	16317	4.52	74
2	16350	4.53	0
2	16383	4.54	122
2	16406	4.55	62
2	16443	4.56	49
2	16480	4.57	90
2	16519	4.58	43
2	16546	4.59	63
2	16593	4.6	0
2	16626	4.61	38
2	16661	4.62	8
2	16696	4.63	47
2	16725	4.64	14
2	16766	4.65	58
2	16797	4.66	70
2	16842	4.67	14
2	16883	4.68	0
2	16918	4.69	51
2	16947	4.7	43
2	16982	4.71	0
2	17009	4.72	64
2	17038	4.73	97
2	17075	4.74	0
2	17100	4.75	105
2	17145	4.76	0
2	17174	4.77	84
2	17213	4.78	0
2	17246	4.79	125
2	17277	4.8	35
2	17312	4.81	0
2	17343	4.82	21
2	17388	4.83	48
2	17421	4.84	46
2	17460	4.85	0
2	17499	4.86	71
2	17534	4.87	140
2	17577	4.88	0
2	17616	4.89	0
2	17665	4.9	0
2	17704	4.91	94
2	17739	4.92	0
2	17768	4.93	66
2	17815	4.94	31
2	17854	4.95	13
2	17891	4.96	31
2	17926	4.97	0
2	17953	4.98	140
2	17974	4.99	17
2	18011	5	0
2	18048	5.01	0
2	18077	5.02	84
2	18110	5.03	0
2	18155	5.04	71
2	18204	5.05	0
2	18231	5.06	168
2	18260	5.07	57
2	18297	5.08	38
2	18328	5.09	0
2	18365	5.1	194
2	18392	5.11	0
2	18431	5.12	0
2	18468	5.13	0
2	18511	5.14	27
2	18550	5.15	0
2	18569	5.16	51
2	18604	5.17	14
2	18633	5.18	0
2	18664	5.19	0
2	18687	5.2	48
2	18720	5.21	0
2	18745	5.22	75
2	18762	5.23	0
2	18789	5.24	95
2	18810	5.25	0
2	18851	5.26	0
2	18882	5.27	0
2	18909	5.28	0
2	18942	5.29	0
2	18983	5.3	0
2	19026	5.31	0
2	19057	5.32	218
2	19090	5.33	20
2	19133	5.34	34
2	19182	5.35	69
2	19225	5.36	0
2	19260	5.37	32
2	19309	5.38	228
2	19356	5.39	0
2	19383	5.4	193
2	19410	5.41	0
2	19443	5.42	0
2	19474	5.43	94
2	19521	5.44	7
2	19562	5.45	0
2	19597	5.46	109
2	19636	5.47	106
2	19673	5.48	0
2	19708	5.49	58
2	19761	5.5	0
2	19804	5.51	107
2	19841	5.52	0
2	19876	5.53	121
2	19915	5.54	31
2	19958	5.55	64
2	19987	5.56	43
2	20012	5.57	0
2	20053	5.58	47
2	20086	5.59	237
2	20133	5.6	0
2	20174	5.61	120
2	20219	5.62	0
2	20254	5.63	35
2	20295	5.64	4
2	20332	5.65	172
2	20367	5.66	79
2	20392	5.67	72
2	20435	5.68	125
2	20468	5.69	82
2	20505	5.7	0
2	20548	5.71	163
2	20585	5.72	75
2	20608	5.73	0
2	20643	5.74	0
2	20678	5.75	135
2	20713	5.76	0
2	20740	5.77	0
2	20781	5.78	3
2	20814	5.79	1
2	20853	5.8	43
2	20878	5.81	0
2	20905	5.82	62
2	20944	5.83	129
2	20977	5.84	0
2	21014	5.85	84
2	21053	5.86	0
2	21082	5.87	86
2	21111	5.88	0
2	21134	5.89	31
2	21173	5.9	29
2	21198	5.91	147
2	21251	5.92	0
2	21282	5.93	0
2	21321	5.94	0
2	21350	5.95	29
2	21385	5.96	101
2	21426	5.97	47
2	21467	5.98	70
2	21492	5.99	65
2	21521	6	62
2	21558	6.01	53
2	21589	6.02	73
2	21624	6.03	129
2	21663	6.04	91
2	21700	6.05	0
2	21745	6.06	0
2	21790	6.07	103
2	21829	6.08	21
2	21878	6.09	54
2	21915	6.1	0
2	21950	6.11	74
2	21981	6.12	44
2	22010	6.13	28
2	22053	6.14	54
2	22090	6.15	0
2	22123	6.16	9
2	22148	6.17	0
2	22197	6.18	0
2	22230	6.19	19
2	22257	6.2	0
2	22302	6.21	0
2	22343	6.22	11
2	22372	6.23	53
2	22421	6.24	0
2	22454	6.25	0
2	22485	6.26	90
2	22520	6.27	0
2	22551	6.28	65
2	22588	6.29	0
2	22615	6.3	62
2	22646	6.31	50
2	22667	6.32	55
2	22700	6.33	49
2	22731	6.34	0
2	22768	6.35	32
2	22795	6.36	0
2	22834	6.37	0
2	22867	6.38	51
2	22898	6.39	64
2	22937	6.4	94
2	22966	6.41	0
2	23017	6.42	0
2	23054	6.43	126
2	23087	6.44	23
2	23120	6.45	64
2	23149	6.46	0
2	23184	6.47	0
2	23221	6.48	87
2	23264	6.49	60
2	23299	6.5	71
2	23334	6.51	37
2	23361	6.52	0
2	23400	6.53	90
2	23429	6.54	35
2	23468	6.55	0
2	23531	6.56	73
2	23566	6.57	0
2	23607	6.58	154
2	23640	6.59	0
2	23681	6.6	119
2	23710	6.61	10
2	23733	6.62	0
2	23768	6.63	104
2	23805	6.64	0
2	23826	6.65	57
2	23857	6.66	0
2	23898	6.67	0
2	23933	6.68	114
2	23974	6.69	0
2	24011	6.7	66
2	24054	6.71	0
2	24093	6.72	143
2	24130	6.73	70
2	24167	6.74	63
2	24200	6.75	0
2	24233	6.76	0
2	24256	6.77	0
2	24295	6.78	123
2	24338	6.79	36
2	24371	6.8	135
2	24400	6.81	0
2	24433	6.82	0
2	24472	6.83	144
2	24509	6.84	0
2	24550	6.85	0
2	24589	6.86	28
2	24614	6.87	0
2	24643	6.88	0
2	24684	6.89	135
2	24711	6.9	65
2	24746	6.91	25
2	24777	6.92	88
2	24812	6.93	55
2	24857	6.94	16
2	24890	6.95	0
2	24931	6.96	133
2	24962	6.97	0
2	25009	6.98	113
2	25042	6.99	33
2	25075	7	0
2	25134	7.01	125
2	25173	7.02	0
2	25212	7.03	0
2	25255	7.04	0
2	25292	7.05	0
2	25331	7.06	0
2	25368	7.07	138
2	25411	7.08	145
2	25440	7.09	88
2	25477	7.1	204
2	25516	7.11	5
2	25549	7.12	0
2	25586	7.13	51
2	25619	7.14	190
2	25646	7.15	161
2	25677	7.16	36
2	25718	7.17	0
2	25755	7.18	74
2	25784	7.19	0
2	25817	7.2	0
2	25842	7.21	41
2	25883	7.22	0
2	25906	7.23	22
2	25939	7.24	0
2	25970	7.25	0
2	26013	7.26	79
2	26046	7.27	53
2	26073	7.28	0
2	26112	7.29	4
2	26141	7.3	14
2	26178	7.31	0
2	26215	7.32	74
2	26250	7.33	0
2	26311	7.34	38
2	26344	7.35	107
2	26379	7.36	51
2	26412	7.37	0
2	26443	7.38	121
2	26476	7.39	0
2	26513	7.4	33
2	26542	7.41	0
2	26575	7.42	0
2	26612	7.43	214
2	26645	7.44	0
2	26692	7.45	50
2	26733	7.46	86
2	26770	7.47	0
2	26809	7.48	0
2	26834	7.49	0
2	26867	7.5	0
2	26906	7.51	0
2	26941	7.52	379
2	26976	7.53	24
2	27021	7.54	90
2	27056	7.55	31
2	27095	7.56	0
2	27134	7.57	169
2	27157	7.58	40
2	27218	7.59	0
2	27255	7.6	106
2	27308	7.61	58
2	27343	7.62	50
2	27392	7.63	56
2	27427	7.64	15
2	27466	7.65	65
2	27515	7.66	0
2	27564	7.67	318
2	27597	7.68	49
2	27630	7.69	24
2	27669	7.7	22
2	27712	7.71	33
2	27757	7.72	4
2	27800	7.73	87
2	27827	7.74	0
2	27864	7.75	0
2	27909	7.76	193
2	27938	7.77	70
2	27975	7.78	15
2	28004	7.79	0
2	28041	7.8	119
2	28074	7.81	127
2	28113	7.82	6
2	28142	7.83	0
2	28175	7.84	28
2	28202	7.85	0
2	28231	7.86	0
2	28256	7.87	6
2	28295	7.88	21
2	28328	7.89	6
2	28373	7.9	11
2	28418	7.91	1
2	28451	7.92	32
2	28488	7.93	0
2	28519	7.94	0
2	28552	7.95	118
2	28579	7.96	29
2	28616	7.97	0
2	28649	7.98	86
2	28692	7.99	0
2	28735	8	192
2	28760	8.01	35
2	28807	8.02	0
2	28838	8.03	14
2	28867	8.04	124
2	28918	8.05	0
2	28955	8.06	139
2	28992	8.07	0
2	29033	8.08	337
2	29064	8.09	0
2	29091	8.1	54
2	29126	8.11	0
2	29161	8.12	126
2	29202	8.13	47
2	29251	8.14	0
2	29286	8.15	71
2	29325	8.16	0
2	29354	8.17	68
2	29379	8.18	0
2	29422	8.19	0
2	29451	8.2	50
2	29492	8.21	117
2	29531	8.22	72
2	29566	8.23	0
2	29593	8.24	111
2	29634	8.25	41
2	29665	8.26	116
2	29706	8.27	69
2	29745	8.28	38
2	29784	8.29	59
2	29831	8.3	75
2	29860	8.31	168
2	29907	8.32	60
2	29946	8.33	93
2	29979	8.34	0
2	30006	8.35	0
2	30051	8.36	198
2	30086	8.37	150
2	30123	8.38	49
2	30152	8.39	0
2	30183	8.4	16
2	30230	8.41	7
2	30271	8.42	17
2	30306	8.43	49
2	30361	8.44	71
2	30408	8.45	52
2	30445	8.46	0
2	30476	8.47	115
2	30513	8.48	132
2	30548	8.49	0
2	30587	8.5	0
2	30616	8.51	31
2	30643	8.52	91
2	30694	8.53	56
2	30719	8.54	0
2	30758	8.55	0
2	30795	8.56	106
2	30838	8.57	47
2	30867	8.58	0
2	30902	8.59	268
2	30937	8.6	33
2	30960	8.61	107
2	31009	8.62	26
2	31046	8.63	0
2	31093	8.64	0
2	31124	8.65	0
2	31163	8.66	97
2	31192	8.67	90
2	31237	8.68	35
2	31264	8.69	21
2	31307	8.7	0
2	31340	8.71	89
2	31387	8.72	62
2	31432	8.73	59
2	31473	8.74	183
2	31496	8.75	2
2	31535	8.76	0
2	31572	8.77	16
2	31611	8.78	28
2	31644	8.79	0
2	31681	8.8	0
2	31718	8.81	68
2	31749	8.82	0
2	31794	8.83	46
2	31825	8.84	72
2	31858	8.85	112
2	31891	8.86	0
2	31936	8.87	0
2	31975	8.88	0
2	32012	8.89	0
2	32053	8.9	230
2	32084	8.91	154
2	32115	8.92	0
2	32156	8.93	54
2	32185	8.94	140
2	32208	8.95	0
2	32253	8.96	22
2	32294	8.97	0
2	32327	8.98	133
2	32360	8.99	0
2	32399	9	0
2	32440	9.01	0
2	32477	9.02	0
2	32506	9.03	0
2	32541	9.04	196
2	32574	9.05	408
2	32615	9.06	0
2	32644	9.07	0
2	32687	9.08	0
2	32732	9.09	0
2	32757	9.1	0
2	32810	9.11	0
2	32843	9.12	62
2	32880	9.13	52
2	32925	9.14	190
2	32962	9.15	72
2	32991	9.16	0
2	33026	9.17	202
2	33059	9.18	0
2	33098	9.19	8
2	33125	9.2	8
2	33164	9.21	0
2	33209	9.22	133
2	33244	9.23	56
2	33275	9.24	0
2	33320	9.25	17
2	33351	9.26	54
2	33380	9.27	0
2	33413	9.28	0
2	33462	9.29	85
2	33491	9.3	0
2	33528	9.31	81
2	33569	9.32	19
2	33602	9.33	109
2	33637	9.34	75
2	33680	9.35	47
2	33719	9.36	118
2	33766	9.37	186
2	33811	9.38	195
2	33858	9.39	46
2	33893	9.4	0
2	33940	9.41	22
2	33979	9.42	0
2	34016	9.43	193
2	34055	9.44	0
2	34090	9.45	19
2	34125	9.46	25
2	34152	9.47	0
2	34181	9.48	48
2	34234	9.49	0
2	34273	9.5	39
2	34316	9.51	34
2	34351	9.52	65
2	34388	9.53	0
2	34429	9.54	3
2	34460	9.55	18
2	34497	9.56	128
2	34534	9.57	50
2	34569	9.58	61
2	34600	9.59	55
2	34639	9.6	0
2	34674	9.61	0
2	34705	9.62	54
2	34732	9.63	17
2	34765	9.64	60
2	34816	9.65	17
2	34867	9.66	0
2	34902	9.67	45
2	34929	9.68	0
2	34956	9.69	95
2	34985	9.7	10
2	35024	9.71	167
2	35053	9.72	0
2	35086	9.73	14
2	35111	9.74	50
2	35144	9.75	0
2	35191	9.76	0
2	35236	9.77	2
2	35273	9.78	110
2	35300	9.79	70
2	35333	9.8	149
2	35368	9.81	0
2	35401	9.82	75
2	35444	9.83	0
2	35473	9.84	0
2	35514	9.85	0
2	35559	9.86	0
2	35596	9.87	384
2	35639	9.88	0
2	35674	9.89	135
2	35711	9.9	0
2	35750	9.91	0
2	35783	9.92	209
2	35812	9.93	0
2	35839	9.94	40
2	35884	9.95	43
2	35921	9.96	0
2	35950	9.97	0
2	35993	9.98	0
2	36024	9.99	42
2	36065	10	27
3	50	0.01	0
3	85	0.02	143
3	120	0.03	0
3	151	0.04	96
3	192	0.05	0
3	239	0.06	39
3	276	0.07	118
3	309	0.08	3
3	348	0.09	0
3	381	0.1	103
3	412	0.11	29
3	453	0.12	33
3	492	0.13	62
3	525	0.14	50
3	562	0.15	6
3	605	0.16	61
3	640	0.17	6
3	679	0.18	61
3	716	0.19	0
3	755	0.2	0
3	780	0.21	85
3	817	0.22	0
3	854	0.23	115
3	907	0.24	62
3	932	0.25	0
3	963	0.26	21
3	994	0.27	69
3	1037	0.28	0
3	1084	0.29	114
3	1117	0.3	37
3	1154	0.31	0
3	1193	0.32	310
3	1228	0.33	92
3	1265	0.34	100
3	1306	0.35	68
3	1337	0.36	96
3	1386	0.37	87
3	1419	0.38	181
3	1454	0.39	76
3	1499	0.4	47
3	1536	0.41	34
3	1571	0.42	0
3	1600	0.43	102
3	1633	0.44	13
3	1678	0.45	70
3	1711	0.46	0
3	1738	0.47	0
3	1763	0.48	137
3	1790	0.49	0
3	1829	0.5	48
3	1876	0.51	0
3	1915	0.52	128
3	1952	0.53	0
3	1985	0.54	181
3	2018	0.55	0
3	2057	0.56	28
3	2090	0.57	57
3	2135	0.58	0
3	2176	0.59	116
3	2203	0.6	44
3	2222	0.61	74
3	2245	0.62	0
3	2270	0.63	0
3	2313	0.64	0
3	2352	0.65	0
3	2377	0.66	46
3	2396	0.67	67
3	2433	0.68	0
3	2452	0.69	0
3	2479	0.7	0
3	2510	0.71	5
3	2553	0.72	0
3	2592	0.73	131
3	2633	0.74	0
3	2656	0.75	101
3	2697	0.76	105
3	2748	0.77	32
3	2783	0.78	51
3	2818	0.79	22
3	2847	0.8	0
3	2882	0.81	81
3	2919	0.82	75
3	2942	0.83	0
3	2985	0.84	0
3	3022	0.85	132
3	3057	0.86	0
3	3098	0.87	55
3	3127	0.88	34
3	3164	0.89	59
3	3189	0.9	25
3	3222	0.91	0
3	3269	0.92	60
3	3314	0.93	0
3	3351	0.94	165
3	3372	0.95	103
3	3415	0.96	0
3	3454	0.97	0
3	3499	0.98	67
3	3532	0.99	135
3	3575	1	18
3	3614	1.01	6
3	3647	1.02	0
3	3694	1.03	156
3	3733	1.04	52
3	3770	1.05	0
3	3809	1.06	73
3	3852	1.07	0
3	3887	1.08	268
3	3928	1.09	35
3	3959	1.1	41
3	3998	1.11	0
3	4031	1.12	66
3	4078	1.13	0
3	4113	1.14	59
3	4152	1.15	67
3	4181	1.16	0
3	4226	1.17	21
3	4255	1.18	57
3	4288	1.19	48
3	4319	1.2	24
3	4366	1.21	26
3	4395	1.22	0
3	4438	1.23	132
3	4479	1.24	42
3	4514	1.25	40
3	4557	1.26	126
3	4596	1.27	0
3	4631	1.28	69
3	4676	1.29	0
3	4707	1.3	77
3	4734	1.31	35
3	4765	1.32	52
3	4806	1.33	41
3	4837	1.34	136
3	4884	1.35	0
3	4927	1.36	0
3	4970	1.37	0
3	4999	1.38	30
3	5028	1.39	0
3	5057	1.4	0
3	5100	1.41	63
3	5137	1.42	0
3	5172	1.43	128
3	5207	1.44	63
3	5242	1.45	121
3	5279	1.46	0
3	5306	1.47	0
3	5339	1.48	0
3	5380	1.49	7
3	5415	1.5	57
3	5462	1.51	0
3	5505	1.52	0
3	5528	1.53	50
3	5561	1.54	0
3	5598	1.55	1
3	5635	1.56	59
3	5676	1.57	0
3	5717	1.58	34
3	5748	1.59	0
3	5781	1.6	157
3	5818	1.61	0
3	5847	1.62	54
3	5890	1.63	0
3	5921	1.64	13
3	5962	1.65	0
3	5995	1.66	9
3	6040	1.67	26
3	6081	1.68	64
3	6114	1.69	0
3	6151	1.7	15
3	6182	1.71	34
3	6211	1.72	118
3	6250	1.73	63
3	6283	1.74	101
3	6314	1.75	0
3	6367	1.76	63
3	6404	1.77	114
3	6435	1.78	59
3	6480	1.79	0
3	6525	1.8	0
3	6566	1.81	72
3	6595	1.82	0
3	6632	1.83	113
3	6659	1.84	0
3	6690	1.85	120
3	6725	1.86	0
3	6770	1.87	20
3	6799	1.88	13
3	6832	1.89	0
3	6869	1.9	0
3	6906	1.91	106
3	6955	1.92	54
3	6988	1.93	91
3	7015	1.94	0
3	7046	1.95	0
3	7083	1.96	0
3	7114	1.97	64
3	7167	1.98	30
3	7204	1.99	58
3	7249	2	99
3	7292	2.01	159
3	7323	2.02	0
3	7352	2.03	173
3	7399	2.04	0
3	7432	2.05	107
3	7463	2.06	0
3	7502	2.07	177
3	7523	2.08	5
3	7564	2.09	0
3	7599	2.1	32
3	7630	2.11	16
3	7669	2.12	43
3	7720	2.13	0
3	7759	2.14	64
3	7782	2.15	46
3	7825	2.16	48
3	7860	2.17	0
3	7897	2.18	0
3	7934	2.19	232
3	7967	2.2	40
3	8000	2.21	53
3	8035	2.22	0
3	8090	2.23	0
3	8131	2.24	75
3	8156	2.25	13
3	8185	2.26	0
3	8228	2.27	79
3	8263	2.28	51
3	8292	2.29	0
3	8329	2.3	67
3	8358	2.31	0
3	8399	2.32	0
3	8426	2.33	20
3	8459	2.34	0
3	8490	2.35	0
3	8511	2.36	75
3	8540	2.37	5
3	8595	2.38	13
3	8630	2.39	31
3	8661	2.4	145
3	8692	2.41	110
3	8729	2.42	70
3	8766	2.43	49
3	8805	2.44	0
3	8858	2.45	194
3	8887	2.46	66
3	8918	2.47	0
3	8947	2.48	0
3	8978	2.49	0
3	9017	2.5	35
3	9036	2.51	0
3	9073	2.52	0
3	9112	2.53	0
3	9141	2.54	18
3	9180	2.55	170
3	9215	2.56	14
3	9258	2.57	59
3	9295	2.58	57
3	9334	2.59	0
3	9367	2.6	30
3	9404	2.61	57
3	9427	2.62	0
3	9460	2.63	0
3	9501	2.64	51
3	9546	2.65	0
3	9577	2.66	19
3	9612	2.67	25
3	9641	2.68	50
3	9670	2.69	0
3	9705	2.7	0
3	9758	2.71	0
3	9787	2.72	0
3	9820	2.73	131
3	9851	2.74	0
3	9886	2.75	0
3	9919	2.76	47
3	9970	2.77	62
3	10013	2.78	184
3	10040	2.79	0
3	10091	2.8	0
3	10154	2.81	166
3	10189	2.82	128
3	10220	2.83	0
3	10257	2.84	68
3	10286	2.85	89
3	10321	2.86	49
3	10358	2.87	44
3	10401	2.88	0
3	10436	2.89	74
3	10471	2.9	0
3	10516	2.91	39
3	10543	2.92	0
3	10580	2.93	7
3	10619	2.94	0
3	10648	2.95	36
3	10689	2.96	183
3	10730	2.97	89
3	10763	2.98	158
3	10798	2.99	0
3	10827	3	43
3	10866	3.01	62
3	10897	3.02	0
3	10934	3.03	32
3	10957	3.04	34
3	10996	3.05	0
3	11045	3.06	42
3	11088	3.07	1
3	11131	3.08	141
3	11162	3.09	0
3	11193	3.1	173
3	11234	3.11	70
3	11279	3.12	4
3	11302	3.13	56
3	11337	3.14	215
3	11384	3.15	0
3	11425	3.16	0
3	11454	3.17	66
3	11479	3.18	86
3	11504	3.19	0
3	11545	3.2	9
3	11584	3.21	20
3	11607	3.22	0
3	11644	3.23	0
3	11679	3.24	69
3	11708	3.25	53
3	11731	3.26	51
3	11770	3.27	18
3	11797	3.28	43
3	11830	3.29	109
3	11879	3.3	0
3	11924	3.31	1
3	11975	3.32	0
3	12008	3.33	100
3	12035	3.34	117
3	12076	3.35	94
3	12111	3.36	0
3	12152	3.37	54
3	12187	3.38	48
3	12222	3.39	99
3	12255	3.4	0
3	12280	3.41	0
3	12311	3.42	0
3	12352	3.43	5
3	12399	3.44	51
3	12438	3.45	4
3	12479	3.46	90
3	12518	3.47	35
3	12563	3.48	0
3	12606	3.49	0
3	12647	3.5	103
3	12668	3.51	1
3	12697	3.52	0
3	12734	3.53	39
3	12773	3.54	0
3	12816	3.55	111
3	12843	3.56	0
3	12886	3.57	0
3	12925	3.58	100
3	12964	3.59	85
3	13001	3.6	93
3	13028	3.61	0
3	13069	3.62	0
3	13106	3.63	0
3	13141	3.64	204
3	13166	3.65	152
3	13199	3.66	0
3	13228	3.67	0
3	13275	3.68	23
3	13318	3.69	16
3	13357	3.7	132
3	13388	3.71	0
3	13417	3.72	109
3	13452	3.73	83
3	13489	3.74	0
3	13528	3.75	94
3	13563	3.76	0
3	13598	3.77	0
3	13625	3.78	0
3	13670	3.79	110
3	13699	3.8	351
3	13740	3.81	155
3	13761	3.82	0
3	13796	3.83	99
3	13835	3.84	0
3	13880	3.85	101
3	13915	3.86	167
3	13966	3.87	36
3	14005	3.88	0
3	14054	3.89	44
3	14097	3.9	35
3	14138	3.91	64
3	14175	3.92	136
3	14218	3.93	0
3	14249	3.94	35
3	14290	3.95	0
3	14323	3.96	114
3	14364	3.97	67
3	14387	3.98	0
3	14426	3.99	2
3	14457	4	22
3	14502	4.01	145
3	14533	4.02	0
3	14560	4.03	0
3	14595	4.04	209
3	14634	4.05	0
3	14673	4.06	0
3	14708	4.07	124
3	14743	4.08	0
3	14780	4.09	0
3	14807	4.1	160
3	14842	4.11	59
3	14885	4.12	20
3	14910	4.13	30
3	14927	4.14	13
3	14958	4.15	0
3	14993	4.16	0
3	15040	4.17	73
3	15083	4.18	49
3	15108	4.19	0
3	15139	4.2	152
3	15184	4.21	33
3	15215	4.22	66
3	15250	4.23	0
3	15287	4.24	0
3	15314	4.25	114
3	15361	4.26	45
3	15388	4.27	16
3	15433	4.28	0
3	15466	4.29	96
3	15491	4.3	0
3	15522	4.31	136
3	15567	4.32	74
3	15600	4.33	50
3	15643	4.34	58
3	15688	4.35	73
3	15723	4.36	63
3	15754	4.37	38
3	15795	4.38	51
3	15838	4.39	2
3	15869	4.4	3
3	15904	4.41	0
3	15951	4.42	0
3	15982	4.43	143
3	16013	4.44	0
3	16048	4.45	183
3	16089	4.46	97
3	16118	4.47	220
3	16167	4.48	44
3	16198	4.49	71
3	16229	4.5	123
3	16268	4.51	0
3	16317	4.52	49
3	16350	4.53	0
3	16383	4.54	168
3	16406	4.55	68
3	16443	4.56	0
3	16480	4.57	0
3	16519	4.58	0
3	16546	4.59	114
3	16593	4.6	4
3	16626	4.61	40
3	16661	4.62	63
3	16696	4.63	37
3	16725	4.64	19
3	16766	4.65	8
3	16797	4.66	0
3	16842	4.67	40
3	16883	4.68	0
3	16918	4.69	252
3	16947	4.7	0
3	16982	4.71	0
3	17009	4.72	0
3	17038	4.73	18
3	17075	4.74	74
3	17100	4.75	76
3	17145	4.76	28
3	17174	4.77	0
3	17213	4.78	111
3	17246	4.79	58
3	17277	4.8	51
3	17312	4.81	0
3	17343	4.82	0
3	17388	4.83	0
3	17421	4.84	90
3	17460	4.85	0
3	17499	4.86	18
3	17534	4.87	7
3	17577	4.88	138
3	17616	4.89	151
3	17665	4.9	0
3	17704	4.91	225
3	17739	4.92	58
3	17768	4.93	26
3	17815	4.94	142
3	17854	4.95	0
3	17891	4.96	0
3	17926	4.97	48
3	17953	4.98	26
3	17974	4.99	0
3	18011	5	109
3	18048	5.01	74
3	18077	5.02	0
3	18110	5.03	60
3	18155	5.04	66
3	18204	5.05	58
3	18231	5.06	0
3	18260	5.07	0
3	18297	5.08	0
3	18328	5.09	0
3	18365	5.1	0
3	18392	5.11	168
3	18431	5.12	0
3	18468	5.13	45
3	18511	5.14	39
3	18550	5.15	20
3	18569	5.16	0
3	18604	5.17	0
3	18633	5.18	145
3	18664	5.19	29
3	18687	5.2	0
3	18720	5.21	49
3	18745	5.22	36
3	18762	5.23	0
3	18789	5.24	0
3	18810	5.25	8
3	18851	5.26	67
3	18882	5.27	95
3	18909	5.28	0
3	18942	5.29	0
3	18983	5.3	127
3	19026	5.31	14
3	19057	5.32	203
3	19090	5.33	0
3	19133	5.34	4
3	19182	5.35	123
3	19225	5.36	46
3	19260	5.37	0
3	19309	5.38	32
3	19356	5.39	129
3	19383	5.4	116
3	19410	5.41	0
3	19443	5.42	0
3	19474	5.43	0
3	19521	5.44	121
3	19562	5.45	70
3	19597	5.46	0
3	19636	5.47	54
3	19673	5.48	0
3	19708	5.49	35
3	19761	5.5	0
3	19804	5.51	68
3	19841	5.52	0
3	19876	5.53	66
3	19915	5.54	97
3	19958	5.55	79
3	19987	5.56	0
3	20012	5.57	0
3	20053	5.58	0
3	20086	5.59	35
3	20133	5.6	45
3	20174	5.61	17
3	20219	5.62	55
3	20254	5.63	94
3	20295	5.64	23
3	20332	5.65	0
3	20367	5.66	0
3	20392	5.67	50
3	20435	5.68	60
3	20468	5.69	0
3	20505	5.7	0
3	20548	5.71	195
3	20585	5.72	0
3	20608	5.73	34
3	20643	5.74	149
3	20678	5.75	0
3	20713	5.76	27
3	20740	5.77	0
3	20781	5.78	44
3	20814	5.79	132
3	20853	5.8	0
3	20878	5.81	46
3	20905	5.82	0
3	20944	5.83	8
3	20977	5.84	59
3	21014	5.85	0
3	21053	5.86	135
3	21082	5.87	117
3	21111	5.88	13
3	21134	5.89	66
3	21173	5.9	0
3	21198	5.91	54
3	21251	5.92	0
3	21282	5.93	0
3	21321	5.94	53
3	21350	5.95	25
3	21385	5.96	61
3	21426	5.97	59
3	21467	5.98	100
3	21492	5.99	63
3	21521	6	0
3	21558	6.01	139
3	21589	6.02	0
3	21624	6.03	53
3	21663	6.04	100
3	21700	6.05	44
3	21745	6.06	50
3	21790	6.07	16
3	21829	6.08	77
3	21878	6.09	45
3	21915	6.1	0
3	21950	6.11	52
3	21981	6.12	65
3	22010	6.13	118
3	22053	6.14	35
3	22090	6.15	0
3	22123	6.16	7
3	22148	6.17	140
3	22197	6.18	0
3	22230	6.19	32
3	22257	6.2	26
3	22302	6.21	18
3	22343	6.22	31
3	22372	6.23	44
3	22421	6.24	0
3	22454	6.25	0
3	22485	6.26	11
3	22520	6.27	0
3	22551	6.28	27
3	22588	6.29	51
3	22615	6.3	64
3	22646	6.31	18
3	22667	6.32	0
3	22700	6.33	42
3	22731	6.34	47
3	22768	6.35	10
3	22795	6.36	0
3	22834	6.37	0
3	22867	6.38	138
3	22898	6.39	0
3	22937	6.4	0
3	22966	6.41	46
3	23017	6.42	10
3	23054	6.43	109
3	23087	6.44	32
3	23120	6.45	51
3	23149	6.46	58
3	23184	6.47	0
3	23221	6.48	7
3	23264	6.49	11
3	23299	6.5	21
3	23334	6.51	217
3	23361	6.52	8
3	23400	6.53	0
3	23429	6.54	38
3	23468	6.55	104
3	23531	6.56	0
3	23566	6.57	154
3	23607	6.58	0
3	23640	6.59	0
3	23681	6.6	188
3	23710	6.61	0
3	23733	6.62	0
3	23768	6.63	68
3	23805	6.64	170
3	23826	6.65	55
3	23857	6.66	103
3	23898	6.67	63
3	23933	6.68	49
3	23974	6.69	6
3	24011	6.7	32
3	24054	6.71	0
3	24093	6.72	131
3	24130	6.73	61
3	24167	6.74	131
3	24200	6.75	52
3	24233	6.76	43
3	24256	6.77	0
3	24295	6.78	0
3	24338	6.79	0
3	24371	6.8	47
3	24400	6.81	0
3	24433	6.82	0
3	24472	6.83	181
3	24509	6.84	0
3	24550	6.85	0
3	24589	6.86	0
3	24614	6.87	375
3	24643	6.88	0
3	24684	6.89	0
3	24711	6.9	60
3	24746	6.91	0
3	24777	6.92	4
3	24812	6.93	31
3	24857	6.94	0
3	24890	6.95	25
3	24931	6.96	141
3	24962	6.97	19
3	25009	6.98	0
3	25042	6.99	104
3	25075	7	0
3	25134	7.01	0
3	25173	7.02	64
3	25212	7.03	0
3	25255	7.04	0
3	25292	7.05	0
3	25331	7.06	0
3	25368	7.07	65
3	25411	7.08	0
3	25440	7.09	218
3	25477	7.1	36
3	25516	7.11	129
3	25549	7.12	0
3	25586	7.13	65
3	25619	7.14	47
3	25646	7.15	52
3	25677	7.16	40
3	25718	7.17	0
3	25755	7.18	27
3	25784	7.19	0
3	25817	7.2	72
3	25842	7.21	231
3	25883	7.22	0
3	25906	7.23	15
3	25939	7.24	0
3	25970	7.25	47
3	26013	7.26	124
3	26046	7.27	63
3	26073	7.28	0
3	26112	7.29	0
3	26141	7.3	60
3	26178	7.31	0
3	26215	7.32	108
3	26250	7.33	0
3	26311	7.34	0
3	26344	7.35	123
3	26379	7.36	0
3	26412	7.37	0
3	26443	7.38	71
3	26476	7.39	74
3	26513	7.4	64
3	26542	7.41	0
3	26575	7.42	0
3	26612	7.43	137
3	26645	7.44	42
3	26692	7.45	0
3	26733	7.46	90
3	26770	7.47	87
3	26809	7.48	26
3	26834	7.49	0
3	26867	7.5	0
3	26906	7.51	166
3	26941	7.52	47
3	26976	7.53	0
3	27021	7.54	0
3	27056	7.55	137
3	27095	7.56	42
3	27134	7.57	159
3	27157	7.58	74
3	27218	7.59	0
3	27255	7.6	49
3	27308	7.61	42
3	27343	7.62	28
3	27392	7.63	103
3	27427	7.64	21
3	27466	7.65	0
3	27515	7.66	126
3	27564	7.67	42
3	27597	7.68	0
3	27630	7.69	0
3	27669	7.7	53
3	27712	7.71	79
3	27757	7.72	61
3	27800	7.73	157
3	27827	7.74	119
3	27864	7.75	0
3	27909	7.76	8
3	27938	7.77	46
3	27975	7.78	78
3	28004	7.79	32
3	28041	7.8	0
3	28074	7.81	57
3	28113	7.82	0
3	28142	7.83	128
3	28175	7.84	46
3	28202	7.85	0
3	28231	7.86	0
3	28256	7.87	0
3	28295	7.88	0
3	28328	7.89	163
3	28373	7.9	51
3	28418	7.91	12
3	28451	7.92	63
3	28488	7.93	0
3	28519	7.94	0
3	28552	7.95	107
3	28579	7.96	34
3	28616	7.97	0
3	28649	7.98	60
3	28692	7.99	77
3	28735	8	0
3	28760	8.01	66
3	28807	8.02	48
3	28838	8.03	42
3	28867	8.04	100
3	28918	8.05	0
3	28955	8.06	69
3	28992	8.07	0
3	29033	8.08	63
3	29064	8.09	0
3	29091	8.1	113
3	29126	8.11	82
3	29161	8.12	0
3	29202	8.13	0
3	29251	8.14	107
3	29286	8.15	74
3	29325	8.16	0
3	29354	8.17	80
3	29379	8.18	68
3	29422	8.19	0
3	29451	8.2	39
3	29492	8.21	8
3	29531	8.22	0
3	29566	8.23	86
3	29593	8.24	22
3	29634	8.25	53
3	29665	8.26	44
3	29706	8.27	4
3	29745	8.28	68
3	29784	8.29	116
3	29831	8.3	47
3	29860	8.31	0
3	29907	8.32	0
3	29946	8.33	0
3	29979	8.34	111
3	30006	8.35	0
3	30051	8.36	37
3	30086	8.37	48
3	30123	8.38	0
3	30152	8.39	46
3	30183	8.4	0
3	30230	8.41	107
3	30271	8.42	66
3	30306	8.43	82
3	30361	8.44	0
3	30408	8.45	36
3	30445	8.46	33
3	30476	8.47	74
3	30513	8.48	42
3	30548	8.49	63
3	30587	8.5	67
3	30616	8.51	52
3	30643	8.52	109
3	30694	8.53	19
3	30719	8.54	55
3	30758	8.55	0
3	30795	8.56	177
3	30838	8.57	47
3	30867	8.58	201
3	30902	8.59	51
3	30937	8.6	54
3	30960	8.61	61
3	31009	8.62	0
3	31046	8.63	0
3	31093	8.64	121
3	31124	8.65	0
3	31163	8.66	18
3	31192	8.67	22
3	31237	8.68	46
3	31264	8.69	0
3	31307	8.7	87
3	31340	8.71	73
3	31387	8.72	0
3	31432	8.73	0
3	31473	8.74	104
3	31496	8.75	0
3	31535	8.76	112
3	31572	8.77	58
3	31611	8.78	69
3	31644	8.79	0
3	31681	8.8	0
3	31718	8.81	30
3	31749	8.82	0
3	31794	8.83	0
3	31825	8.84	0
3	31858	8.85	282
3	31891	8.86	0
3	31936	8.87	37
3	31975	8.88	0
3	32012	8.89	0
3	32053	8.9	108
3	32084	8.91	0
3	32115	8.92	68
3	32156	8.93	0
3	32185	8.94	0
3	32208	8.95	0
3	32253	8.96	0
3	32294	8.97	0
3	32327	8.98	136
3	32360	8.99	201
3	32399	9	12
3	32440	9.01	0
3	32477	9.02	34
3	32506	9.03	0
3	32541	9.04	122
3	32574	9.05	25
3	32615	9.06	68
3	32644	9.07	6
3	32687	9.08	60
3	32732	9.09	96
3	32757	9.1	12
3	32810	9.11	69
3	32843	9.12	85
3	32880	9.13	33
3	32925	9.14	140
3	32962	9.15	91
3	32991	9.16	0
3	33026	9.17	0
3	33059	9.18	0
3	33098	9.19	100
3	33125	9.2	42
3	33164	9.21	42
3	33209	9.22	0
3	33244	9.23	0
3	33275	9.24	80
3	33320	9.25	1
3	33351	9.26	43
3	33380	9.27	122
3	33413	9.28	0
3	33462	9.29	43
3	33491	9.3	119
3	33528	9.31	0
3	33569	9.32	191
3	33602	9.33	113
3	33637	9.34	0
3	33680	9.35	62
3	33719	9.36	26
3	33766	9.37	61
3	33811	9.38	0
3	33858	9.39	27
3	33893	9.4	112
3	33940	9.41	34
3	33979	9.42	0
3	34016	9.43	71
3	34055	9.44	41
3	34090	9.45	61
3	34125	9.46	0
3	34152	9.47	96
3	34181	9.48	58
3	34234	9.49	99
3	34273	9.5	72
3	34316	9.51	0
3	34351	9.52	148
3	34388	9.53	0
3	34429	9.54	0
3	34460	9.55	72
3	34497	9.56	31
3	34534	9.57	70
3	34569	9.58	29
3	34600	9.59	183
3	34639	9.6	96
3	34674	9.61	28
3	34705	9.62	26
3	34732	9.63	0
3	34765	9.64	0
3	34816	9.65	65
3	34867	9.66	0
3	34902	9.67	0
3	34929	9.68	210
3	34956	9.69	145
3	34985	9.7	80
3	35024	9.71	1
3	35053	9.72	32
3	35086	9.73	77
3	35111	9.74	89
3	35144	9.75	0
3	35191	9.76	0
3	35236	9.77	81
3	35273	9.78	0
3	35300	9.79	163
3	35333	9.8	76
3	35368	9.81	39
3	35401	9.82	118
3	35444	9.83	0
3	35473	9.84	0
3	35514	9.85	0
3	35559	9.86	0
3	35596	9.87	0
3	35639	9.88	200
3	35674	9.89	100
3	35711	9.9	48
3	35750	9.91	64
3	35783	9.92	0
3	35812	9.93	0
3	35839	9.94	51
3	35884	9.95	86
3	35921	9.96	0
3	35950	9.97	0
3	35993	9.98	0
3	36024	9.99	51
3	36065	10	0
4	50	0.01	0
4	85	0.02	0
4	120	0.03	0
4	151	0.04	153
4	192	0.05	0
4	239	0.06	21
4	276	0.07	0
4	309	0.08	104
4	348	0.09	57
4	381	0.1	77
4	412	0.11	24
4	453	0.12	0
4	492	0.13	129
4	525	0.14	53
4	562	0.15	18
4	605	0.16	0
4	640	0.17	65
4	679	0.18	110
4	716	0.19	0
4	755	0.2	0
4	780	0.21	160
4	817	0.22	0
4	854	0.23	96
4	907	0.24	83
4	932	0.25	0
4	963	0.26	26
4	994	0.27	99
4	1037	0.28	41
4	1084	0.29	20
4	1117	0.3	26
4	1154	0.31	0
4	1193	0.32	0
4	1228	0.33	67
4	1265	0.34	56
4	1306	0.35	46
4	1337	0.36	29
4	1386	0.37	25
4	1419	0.38	58
4	1454	0.39	18
4	1499	0.4	121
4	1536	0.41	83
4	1571	0.42	0
4	1600	0.43	94
4	1633	0.44	0
4	1678	0.45	32
4	1711	0.46	0
4	1738	0.47	0
4	1763	0.48	0
4	1790	0.49	203
4	1829	0.5	67
4	1876	0.51	214
4	1915	0.52	93
4	1952	0.53	37
4	1985	0.54	0
4	2018	0.55	46
4	2057	0.56	42
4	2090	0.57	0
4	2135	0.58	73
4	2176	0.59	0
4	2203	0.6	0
4	2222	0.61	62
4	2245	0.62	0
4	2270	0.63	37
4	2313	0.64	25
4	2352	0.65	0
4	2377	0.66	44
4	2396	0.67	129
4	2433	0.68	0
4	2452	0.69	66
4	2479	0.7	0
4	2510	0.71	0
4	2553	0.72	0
4	2592	0.73	39
4	2633	0.74	51
4	2656	0.75	17
4	2697	0.76	36
4	2748	0.77	0
4	2783	0.78	0
4	2818	0.79	0
4	2847	0.8	379
4	2882	0.81	0
4	2919	0.82	42
4	2942	0.83	0
4	2985	0.84	0
4	3022	0.85	206
4	3057	0.86	0
4	3098	0.87	124
4	3127	0.88	0
4	3164	0.89	31
4	3189	0.9	57
4	3222	0.91	0
4	3269	0.92	52
4	3314	0.93	0
4	3351	0.94	59
4	3372	0.95	16
4	3415	0.96	79
4	3454	0.97	0
4	3499	0.98	70
4	3532	0.99	0
4	3575	1	0
4	3614	1.01	0
4	3647	1.02	106
4	3694	1.03	93
4	3733	1.04	14
4	3770	1.05	0
4	3809	1.06	0
4	3852	1.07	26
4	3887	1.08	0
4	3928	1.09	80
4	3959	1.1	21
4	3998	1.11	0
4	4031	1.12	0
4	4078	1.13	0
4	4113	1.14	162
4	4152	1.15	52
4	4181	1.16	0
4	4226	1.17	0
4	4255	1.18	21
4	4288	1.19	40
4	4319	1.2	49
4	4366	1.21	0
4	4395	1.22	101
4	4438	1.23	122
4	4479	1.24	62
4	4514	1.25	0
4	4557	1.26	37
4	4596	1.27	0
4	4631	1.28	12
4	4676	1.29	20
4	4707	1.3	0
4	4734	1.31	42
4	4765	1.32	33
4	4806	1.33	35
4	4837	1.34	25
4	4884	1.35	32
4	4927	1.36	0
4	4970	1.37	0
4	4999	1.38	77
4	5028	1.39	0
4	5057	1.4	183
4	5100	1.41	0
4	5137	1.42	58
4	5172	1.43	0
4	5207	1.44	45
4	5242	1.45	26
4	5279	1.46	0
4	5306	1.47	31
4	5339	1.48	30
4	5380	1.49	0
4	5415	1.5	0
4	5462	1.51	4
4	5505	1.52	93
4	5528	1.53	192
4	5561	1.54	0
4	5598	1.55	25
4	5635	1.56	72
4	5676	1.57	0
4	5717	1.58	0
4	5748	1.59	0
4	5781	1.6	227
4	5818	1.61	0
4	5847	1.62	232
4	5890	1.63	0
4	5921	1.64	3
4	5962	1.65	0
4	5995	1.66	87
4	6040	1.67	115
4	6081	1.68	0
4	6114	1.69	0
4	6151	1.7	0
4	6182	1.71	360
4	6211	1.72	52
4	6250	1.73	61
4	6283	1.74	55
4	6314	1.75	63
4	6367	1.76	43
4	6404	1.77	30
4	6435	1.78	0
4	6480	1.79	188
4	6525	1.8	108
4	6566	1.81	87
4	6595	1.82	0
4	6632	1.83	51
4	6659	1.84	0
4	6690	1.85	126
4	6725	1.86	90
4	6770	1.87	70
4	6799	1.88	79
4	6832	1.89	0
4	6869	1.9	14
4	6906	1.91	0
4	6955	1.92	44
4	6988	1.93	111
4	7015	1.94	177
4	7046	1.95	0
4	7083	1.96	44
4	7114	1.97	73
4	7167	1.98	96
4	7204	1.99	30
4	7249	2	55
4	7292	2.01	117
4	7323	2.02	2
4	7352	2.03	321
4	7399	2.04	0
4	7432	2.05	0
4	7463	2.06	240
4	7502	2.07	73
4	7523	2.08	112
4	7564	2.09	52
4	7599	2.1	26
4	7630	2.11	18
4	7669	2.12	39
4	7720	2.13	60
4	7759	2.14	61
4	7782	2.15	0
4	7825	2.16	0
4	7860	2.17	140
4	7897	2.18	0
4	7934	2.19	41
4	7967	2.2	81
4	8000	2.21	0
4	8035	2.22	48
4	8090	2.23	109
4	8131	2.24	99
4	8156	2.25	74
4	8185	2.26	0
4	8228	2.27	133
4	8263	2.28	22
4	8292	2.29	57
4	8329	2.3	0
4	8358	2.31	69
4	8399	2.32	13
4	8426	2.33	0
4	8459	2.34	57
4	8490	2.35	96
4	8511	2.36	116
4	8540	2.37	0
4	8595	2.38	0
4	8630	2.39	110
4	8661	2.4	41
4	8692	2.41	0
4	8729	2.42	0
4	8766	2.43	88
4	8805	2.44	169
4	8858	2.45	0
4	8887	2.46	100
4	8918	2.47	120
4	8947	2.48	0
4	8978	2.49	51
4	9017	2.5	46
4	9036	2.51	82
4	9073	2.52	0
4	9112	2.53	144
4	9141	2.54	62
4	9180	2.55	56
4	9215	2.56	0
4	9258	2.57	0
4	9295	2.58	150
4	9334	2.59	59
4	9367	2.6	124
4	9404	2.61	42
4	9427	2.62	0
4	9460	2.63	9
4	9501	2.64	8
4	9546	2.65	124
4	9577	2.66	107
4	9612	2.67	19
4	9641	2.68	2
4	9670	2.69	5
4	9705	2.7	120
4	9758	2.71	0
4	9787	2.72	0
4	9820	2.73	97
4	9851	2.74	0
4	9886	2.75	41
4	9919	2.76	120
4	9970	2.77	37
4	10013	2.78	35
4	10040	2.79	0
4	10091	2.8	0
4	10154	2.81	89
4	10189	2.82	93
4	10220	2.83	62
4	10257	2.84	0
4	10286	2.85	12
4	10321	2.86	0
4	10358	2.87	68
4	10401	2.88	6
4	10436	2.89	11
4	10471	2.9	71
4	10516	2.91	0
4	10543	2.92	313
4	10580	2.93	0
4	10619	2.94	34
4	10648	2.95	0
4	10689	2.96	22
4	10730	2.97	0
4	10763	2.98	208
4	10798	2.99	10
4	10827	3	29
4	10866	3.01	9
4	10897	3.02	156
4	10934	3.03	0
4	10957	3.04	9
4	10996	3.05	0
4	11045	3.06	5
4	11088	3.07	56
4	11131	3.08	52
4	11162	3.09	0
4	11193	3.1	0
4	11234	3.11	0
4	11279	3.12	65
4	11302	3.13	12
4	11337	3.14	0
4	11384	3.15	71
4	11425	3.16	0
4	11454	3.17	4
4	11479	3.18	36
4	11504	3.19	0
4	11545	3.2	0
4	11584	3.21	75
4	11607	3.22	153
4	11644	3.23	0
4	11679	3.24	63
4	11708	3.25	59
4	11731	3.26	0
4	11770	3.27	0
4	11797	3.28	40
4	11830	3.29	48
4	11879	3.3	0
4	11924	3.31	135
4	11975	3.32	88
4	12008	3.33	0
4	12035	3.34	61
4	12076	3.35	29
4	12111	3.36	144
4	12152	3.37	49
4	12187	3.38	14
4	12222	3.39	40
4	12255	3.4	39
4	12280	3.41	0
4	12311	3.42	53
4	12352	3.43	44
4	12399	3.44	89
4	12438	3.45	0
4	12479	3.46	81
4	12518	3.47	0
4	12563	3.48	77
4	12606	3.49	40
4	12647	3.5	146
4	12668	3.51	126
4	12697	3.52	0
4	12734	3.53	7
4	12773	3.54	0
4	12816	3.55	86
4	12843	3.56	0
4	12886	3.57	185
4	12925	3.58	101
4	12964	3.59	70
4	13001	3.6	34
4	13028	3.61	0
4	13069	3.62	136
4	13106	3.63	0
4	13141	3.64	52
4	13166	3.65	0
4	13199	3.66	0
4	13228	3.67	113
4	13275	3.68	0
4	13318	3.69	95
4	13357	3.7	0
4	13388	3.71	0
4	13417	3.72	0
4	13452	3.73	102
4	13489	3.74	170
4	13528	3.75	1
4	13563	3.76	0
4	13598	3.77	10
4	13625	3.78	11
4	13670	3.79	68
4	13699	3.8	14
4	13740	3.81	48
4	13761	3.82	0
4	13796	3.83	73
4	13835	3.84	58
4	13880	3.85	49
4	13915	3.86	121
4	13966	3.87	157
4	14005	3.88	0
4	14054	3.89	0
4	14097	3.9	0
4	14138	3.91	149
4	14175	3.92	30
4	14218	3.93	0
4	14249	3.94	250
4	14290	3.95	15
4	14323	3.96	119
4	14364	3.97	25
4	14387	3.98	68
4	14426	3.99	15
4	14457	4	0
4	14502	4.01	218
4	14533	4.02	188
4	14560	4.03	0
4	14595	4.04	23
4	14634	4.05	3
4	14673	4.06	0
4	14708	4.07	31
4	14743	4.08	0
4	14780	4.09	0
4	14807	4.1	0
4	14842	4.11	0
4	14885	4.12	0
4	14910	4.13	72
4	14927	4.14	49
4	14958	4.15	0
4	14993	4.16	0
4	15040	4.17	68
4	15083	4.18	0
4	15108	4.19	177
4	15139	4.2	13
4	15184	4.21	67
4	15215	4.22	93
4	15250	4.23	102
4	15287	4.24	0
4	15314	4.25	198
4	15361	4.26	128
4	15388	4.27	18
4	15433	4.28	0
4	15466	4.29	0
4	15491	4.3	151
4	15522	4.31	22
4	15567	4.32	54
4	15600	4.33	0
4	15643	4.34	0
4	15688	4.35	75
4	15723	4.36	155
4	15754	4.37	71
4	15795	4.38	42
4	15838	4.39	60
4	15869	4.4	44
4	15904	4.41	0
4	15951	4.42	58
4	15982	4.43	107
4	16013	4.44	0
4	16048	4.45	28
4	16089	4.46	90
4	16118	4.47	126
4	16167	4.48	18
4	16198	4.49	0
4	16229	4.5	10
4	16268	4.51	7
4	16317	4.52	24
4	16350	4.53	0
4	16383	4.54	98
4	16406	4.55	0
4	16443	4.56	127
4	16480	4.57	65
4	16519	4.58	35
4	16546	4.59	5
4	16593	4.6	1
4	16626	4.61	1
4	16661	4.62	14
4	16696	4.63	140
4	16725	4.64	81
4	16766	4.65	0
4	16797	4.66	0
4	16842	4.67	0
4	16883	4.68	73
4	16918	4.69	190
4	16947	4.7	49
4	16982	4.71	8
4	17009	4.72	98
4	17038	4.73	0
4	17075	4.74	29
4	17100	4.75	49
4	17145	4.76	0
4	17174	4.77	87
4	17213	4.78	15
4	17246	4.79	212
4	17277	4.8	0
4	17312	4.81	58
4	17343	4.82	1
4	17388	4.83	70
4	17421	4.84	94
4	17460	4.85	0
4	17499	4.86	0
4	17534	4.87	273
4	17577	4.88	34
4	17616	4.89	108
4	17665	4.9	38
4	17704	4.91	0
4	17739	4.92	100
4	17768	4.93	0
4	17815	4.94	0
4	17854	4.95	60
4	17891	4.96	135
4	17926	4.97	26
4	17953	4.98	0
4	17974	4.99	233
4	18011	5	68
4	18048	5.01	58
4	18077	5.02	31
4	18110	5.03	38
4	18155	5.04	7
4	18204	5.05	0
4	18231	5.06	60
4	18260	5.07	63
4	18297	5.08	0
4	18328	5.09	51
4	18365	5.1	0
4	18392	5.11	49
4	18431	5.12	121
4	18468	5.13	73
4	18511	5.14	36
4	18550	5.15	0
4	18569	5.16	62
4	18604	5.17	79
4	18633	5.18	28
4	18664	5.19	68
4	18687	5.2	0
4	18720	5.21	70
4	18745	5.22	15
4	18762	5.23	0
4	18789	5.24	0
4	18810	5.25	71
4	18851	5.26	0
4	18882	5.27	31
4	18909	5.28	81
4	18942	5.29	65
4	18983	5.3	0
4	19026	5.31	47
4	19057	5.32	0
4	19090	5.33	0
4	19133	5.34	0
4	19182	5.35	53
4	19225	5.36	0
4	19260	5.37	0
4	19309	5.38	64
4	19356	5.39	90
4	19383	5.4	0
4	19410	5.41	0
4	19443	5.42	0
4	19474	5.43	84
4	19521	5.44	71
4	19562	5.45	35
4	19597	5.46	0
4	19636	5.47	102
4	19673	5.48	68
4	19708	5.49	0
4	19761	5.5	89
4	19804	5.51	0
4	19841	5.52	144
4	19876	5.53	53
4	19915	5.54	59
4	19958	5.55	0
4	19987	5.56	149
4	20012	5.57	0
4	20053	5.58	0
4	20086	5.59	37
4	20133	5.6	0
4	20174	5.61	130
4	20219	5.62	69
4	20254	5.63	0
4	20295	5.64	65
4	20332	5.65	81
4	20367	5.66	44
4	20392	5.67	0
4	20435	5.68	4
4	20468	5.69	34
4	20505	5.7	0
4	20548	5.71	0
4	20585	5.72	130
4	20608	5.73	5
4	20643	5.74	0
4	20678	5.75	49
4	20713	5.76	130
4	20740	5.77	2
4	20781	5.78	57
4	20814	5.79	239
4	20853	5.8	0
4	20878	5.81	103
4	20905	5.82	10
4	20944	5.83	56
4	20977	5.84	0
4	21014	5.85	122
4	21053	5.86	214
4	21082	5.87	0
4	21111	5.88	0
4	21134	5.89	0
4	21173	5.9	21
4	21198	5.91	110
4	21251	5.92	0
4	21282	5.93	0
4	21321	5.94	185
4	21350	5.95	48
4	21385	5.96	63
4	21426	5.97	0
4	21467	5.98	23
4	21492	5.99	127
4	21521	6	0
4	21558	6.01	0
4	21589	6.02	111
4	21624	6.03	0
4	21663	6.04	42
4	21700	6.05	83
4	21745	6.06	31
4	21790	6.07	0
4	21829	6.08	80
4	21878	6.09	0
4	21915	6.1	0
4	21950	6.11	0
4	21981	6.12	58
4	22010	6.13	0
4	22053	6.14	41
4	22090	6.15	30
4	22123	6.16	0
4	22148	6.17	19
4	22197	6.18	52
4	22230	6.19	0
4	22257	6.2	0
4	22302	6.21	75
4	22343	6.22	69
4	22372	6.23	0
4	22421	6.24	0
4	22454	6.25	0
4	22485	6.26	176
4	22520	6.27	0
4	22551	6.28	48
4	22588	6.29	0
4	22615	6.3	0
4	22646	6.31	154
4	22667	6.32	25
4	22700	6.33	0
4	22731	6.34	0
4	22768	6.35	0
4	22795	6.36	7
4	22834	6.37	0
4	22867	6.38	0
4	22898	6.39	24
4	22937	6.4	0
4	22966	6.41	75
4	23017	6.42	0
4	23054	6.43	81
4	23087	6.44	0
4	23120	6.45	37
4	23149	6.46	0
4	23184	6.47	159
4	23221	6.48	43
4	23264	6.49	56
4	23299	6.5	69
4	23334	6.51	46
4	23361	6.52	0
4	23400	6.53	57
4	23429	6.54	0
4	23468	6.55	36
4	23531	6.56	47
4	23566	6.57	87
4	23607	6.58	0
4	23640	6.59	26
4	23681	6.6	13
4	23710	6.61	79
4	23733	6.62	0
4	23768	6.63	0
4	23805	6.64	53
4	23826	6.65	52
4	23857	6.66	56
4	23898	6.67	0
4	23933	6.68	0
4	23974	6.69	0
4	24011	6.7	0
4	24054	6.71	0
4	24093	6.72	0
4	24130	6.73	0
4	24167	6.74	0
4	24200	6.75	267
4	24233	6.76	166
4	24256	6.77	0
4	24295	6.78	117
4	24338	6.79	10
4	24371	6.8	0
4	24400	6.81	123
4	24433	6.82	0
4	24472	6.83	0
4	24509	6.84	97
4	24550	6.85	0
4	24589	6.86	0
4	24614	6.87	68
4	24643	6.88	84
4	24684	6.89	39
4	24711	6.9	110
4	24746	6.91	15
4	24777	6.92	54
4	24812	6.93	97
4	24857	6.94	8
4	24890	6.95	6
4	24931	6.96	0
4	24962	6.97	84
4	25009	6.98	128
4	25042	6.99	43
4	25075	7	148
4	25134	7.01	52
4	25173	7.02	69
4	25212	7.03	124
4	25255	7.04	0
4	25292	7.05	61
4	25331	7.06	0
4	25368	7.07	0
4	25411	7.08	311
4	25440	7.09	0
4	25477	7.1	75
4	25516	7.11	0
4	25549	7.12	23
4	25586	7.13	0
4	25619	7.14	112
4	25646	7.15	25
4	25677	7.16	87
4	25718	7.17	167
4	25755	7.18	0
4	25784	7.19	72
4	25817	7.2	0
4	25842	7.21	72
4	25883	7.22	0
4	25906	7.23	0
4	25939	7.24	46
4	25970	7.25	22
4	26013	7.26	6
4	26046	7.27	0
4	26073	7.28	75
4	26112	7.29	62
4	26141	7.3	75
4	26178	7.31	22
4	26215	7.32	0
4	26250	7.33	89
4	26311	7.34	0
4	26344	7.35	0
4	26379	7.36	178
4	26412	7.37	51
4	26443	7.38	68
4	26476	7.39	134
4	26513	7.4	0
4	26542	7.41	0
4	26575	7.42	0
4	26612	7.43	0
4	26645	7.44	285
4	26692	7.45	71
4	26733	7.46	104
4	26770	7.47	0
4	26809	7.48	145
4	26834	7.49	0
4	26867	7.5	0
4	26906	7.51	103
4	26941	7.52	99
4	26976	7.53	145
4	27021	7.54	23
4	27056	7.55	0
4	27095	7.56	138
4	27134	7.57	0
4	27157	7.58	76
4	27218	7.59	51
4	27255	7.6	10
4	27308	7.61	106
4	27343	7.62	54
4	27392	7.63	0
4	27427	7.64	28
4	27466	7.65	0
4	27515	7.66	4
4	27564	7.67	36
4	27597	7.68	35
4	27630	7.69	0
4	27669	7.7	63
4	27712	7.71	81
4	27757	7.72	9
4	27800	7.73	134
4	27827	7.74	116
4	27864	7.75	67
4	27909	7.76	84
4	27938	7.77	117
4	27975	7.78	31
4	28004	7.79	172
4	28041	7.8	10
4	28074	7.81	0
4	28113	7.82	112
4	28142	7.83	71
4	28175	7.84	0
4	28202	7.85	7
4	28231	7.86	50
4	28256	7.87	89
4	28295	7.88	78
4	28328	7.89	34
4	28373	7.9	163
4	28418	7.91	94
4	28451	7.92	59
4	28488	7.93	41
4	28519	7.94	0
4	28552	7.95	147
4	28579	7.96	133
4	28616	7.97	68
4	28649	7.98	2
4	28692	7.99	38
4	28735	8	45
4	28760	8.01	61
4	28807	8.02	48
4	28838	8.03	0
4	28867	8.04	61
4	28918	8.05	0
4	28955	8.06	0
4	28992	8.07	0
4	29033	8.08	197
4	29064	8.09	0
4	29091	8.1	32
4	29126	8.11	6
4	29161	8.12	43
4	29202	8.13	16
4	29251	8.14	0
4	29286	8.15	156
4	29325	8.16	0
4	29354	8.17	73
4	29379	8.18	264
4	29422	8.19	0
4	29451	8.2	131
4	29492	8.21	40
4	29531	8.22	0
4	29566	8.23	81
4	29593	8.24	29
4	29634	8.25	0
4	29665	8.26	0
4	29706	8.27	32
4	29745	8.28	0
4	29784	8.29	0
4	29831	8.3	104
4	29860	8.31	234
4	29907	8.32	83
4	29946	8.33	0
4	29979	8.34	42
4	30006	8.35	0
4	30051	8.36	57
4	30086	8.37	91
4	30123	8.38	46
4	30152	8.39	58
4	30183	8.4	33
4	30230	8.41	0
4	30271	8.42	0
4	30306	8.43	54
4	30361	8.44	21
4	30408	8.45	0
4	30445	8.46	90
4	30476	8.47	0
4	30513	8.48	0
4	30548	8.49	0
4	30587	8.5	6
4	30616	8.51	0
4	30643	8.52	0
4	30694	8.53	45
4	30719	8.54	87
4	30758	8.55	74
4	30795	8.56	27
4	30838	8.57	0
4	30867	8.58	16
4	30902	8.59	0
4	30937	8.6	30
4	30960	8.61	51
4	31009	8.62	0
4	31046	8.63	153
4	31093	8.64	51
4	31124	8.65	51
4	31163	8.66	27
4	31192	8.67	0
4	31237	8.68	0
4	31264	8.69	83
4	31307	8.7	0
4	31340	8.71	25
4	31387	8.72	62
4	31432	8.73	0
4	31473	8.74	0
4	31496	8.75	80
4	31535	8.76	62
4	31572	8.77	176
4	31611	8.78	76
4	31644	8.79	15
4	31681	8.8	147
4	31718	8.81	9
4	31749	8.82	33
4	31794	8.83	0
4	31825	8.84	58
4	31858	8.85	0
4	31891	8.86	79
4	31936	8.87	0
4	31975	8.88	61
4	32012	8.89	0
4	32053	8.9	88
4	32084	8.91	94
4	32115	8.92	0
4	32156	8.93	92
4	32185	8.94	122
4	32208	8.95	0
4	32253	8.96	75
4	32294	8.97	0
4	32327	8.98	25
4	32360	8.99	0
4	32399	9	95
4	32440	9.01	106
4	32477	9.02	106
4	32506	9.03	71
4	32541	9.04	37
4	32574	9.05	101
4	32615	9.06	54
4	32644	9.07	33
4	32687	9.08	40
4	32732	9.09	0
4	32757	9.1	90
4	32810	9.11	0
4	32843	9.12	0
4	32880	9.13	40
4	32925	9.14	46
4	32962	9.15	0
4	32991	9.16	90
4	33026	9.17	74
4	33059	9.18	0
4	33098	9.19	10
4	33125	9.2	0
4	33164	9.21	25
4	33209	9.22	83
4	33244	9.23	0
4	33275	9.24	164
4	33320	9.25	0
4	33351	9.26	45
4	33380	9.27	0
4	33413	9.28	55
4	33462	9.29	0
4	33491	9.3	0
4	33528	9.31	0
4	33569	9.32	0
4	33602	9.33	0
4	33637	9.34	212
4	33680	9.35	49
4	33719	9.36	121
4	33766	9.37	37
4	33811	9.38	86
4	33858	9.39	128
4	33893	9.4	33
4	33940	9.41	63
4	33979	9.42	0
4	34016	9.43	143
4	34055	9.44	48
4	34090	9.45	20
4	34125	9.46	11
4	34152	9.47	37
4	34181	9.48	0
4	34234	9.49	62
4	34273	9.5	121
4	34316	9.51	0
4	34351	9.52	8
4	34388	9.53	65
4	34429	9.54	53
4	34460	9.55	69
4	34497	9.56	70
4	34534	9.57	67
4	34569	9.58	65
4	34600	9.59	29
4	34639	9.6	53
4	34674	9.61	0
4	34705	9.62	56
4	34732	9.63	133
4	34765	9.64	0
4	34816	9.65	64
4	34867	9.66	0
4	34902	9.67	0
4	34929	9.68	210
4	34956	9.69	118
4	34985	9.7	0
4	35024	9.71	0
4	35053	9.72	58
4	35086	9.73	0
4	35111	9.74	80
4	35144	9.75	81
4	35191	9.76	0
4	35236	9.77	109
4	35273	9.78	0
4	35300	9.79	10
4	35333	9.8	34
4	35368	9.81	55
4	35401	9.82	46
4	35444	9.83	118
4	35473	9.84	0
4	35514	9.85	0
4	35559	9.86	0
4	35596	9.87	0
4	35639	9.88	489
4	35674	9.89	26
4	35711	9.9	20
4	35750	9.91	48
4	35783	9.92	0
4	35812	9.93	0
4	35839	9.94	0
4	35884	9.95	23
4	35921	9.96	41
4	35950	9.97	9
4	35993	9.98	0
4	36024	9.99	0
4	36065	10	112
5	50	0.01	0
5	85	0.02	96
5	120	0.03	76
5	151	0.04	373
5	192	0.05	53
5	239	0.06	66
5	276	0.07	0
5	309	0.08	3
5	348	0.09	0
5	381	0.1	0
5	412	0.11	22
5	453	0.12	0
5	492	0.13	108
5	525	0.14	0
5	562	0.15	0
5	605	0.16	0
5	640	0.17	0
5	679	0.18	93
5	716	0.19	186
5	755	0.2	30
5	780	0.21	42
5	817	0.22	0
5	854	0.23	0
5	907	0.24	66
5	932	0.25	0
5	963	0.26	0
5	994	0.27	0
5	1037	0.28	0
5	1084	0.29	0
5	1117	0.3	57
5	1154	0.31	0
5	1193	0.32	74
5	1228	0.33	65
5	1265	0.34	0
5	1306	0.35	0
5	1337	0.36	81
5	1386	0.37	45
5	1419	0.38	42
5	1454	0.39	25
5	1499	0.4	21
5	1536	0.41	0
5	1571	0.42	217
5	1600	0.43	66
5	1633	0.44	0
5	1678	0.45	47
5	1711	0.46	117
5	1738	0.47	0
5	1763	0.48	0
5	1790	0.49	0
5	1829	0.5	145
5	1876	0.51	47
5	1915	0.52	66
5	1952	0.53	0
5	1985	0.54	38
5	2018	0.55	30
5	2057	0.56	0
5	2090	0.57	65
5	2135	0.58	0
5	2176	0.59	0
5	2203	0.6	0
5	2222	0.61	17
5	2245	0.62	14
5	2270	0.63	0
5	2313	0.64	86
5	2352	0.65	0
5	2377	0.66	175
5	2396	0.67	4
5	2433	0.68	70
5	2452	0.69	50
5	2479	0.7	0
5	2510	0.71	0
5	2553	0.72	74
5	2592	0.73	23
5	2633	0.74	0
5	2656	0.75	0
5	2697	0.76	112
5	2748	0.77	8
5	2783	0.78	24
5	2818	0.79	0
5	2847	0.8	59
5	2882	0.81	63
5	2919	0.82	0
5	2942	0.83	214
5	2985	0.84	52
5	3022	0.85	162
5	3057	0.86	0
5	3098	0.87	1
5	3127	0.88	5
5	3164	0.89	243
5	3189	0.9	114
5	3222	0.91	34
5	3269	0.92	47
5	3314	0.93	0
5	3351	0.94	12
5	3372	0.95	150
5	3415	0.96	68
5	3454	0.97	0
5	3499	0.98	62
5	3532	0.99	4
5	3575	1	54
5	3614	1.01	0
5	3647	1.02	118
5	3694	1.03	154
5	3733	1.04	146
5	3770	1.05	79
5	3809	1.06	0
5	3852	1.07	60
5	3887	1.08	0
5	3928	1.09	0
5	3959	1.1	0
5	3998	1.11	119
5	4031	1.12	118
[...]
12	34152	9.47	0.019309020693001
12	34152	9.47	0.01796071479
12	34152	9.47	0.013325320673001
12	34152	9.47	0.017241299445001
12	34152	9.47	0.019846293992002
12	34152	9.47	0.015872095686001
12	34152	9.47	0.013234562377001
12	34152	9.47	0.012369219982
12	34181	9.48	0.01613469408
12	34181	9.48	0.019253907289
12	34181	9.48	0.011287817278001
12	34181	9.48	0.019281829921001
12	34181	9.48	0.017322978372
12	34181	9.48	0.019253992734001
12	34181	9.48	0.017725249050001
12	34181	9.48	0.020421881800001
12	34181	9.48	0.015594489552001
12	34234	9.49	0.018302183094001
12	34234	9.49	0.017740404011001
12	34234	9.49	0.015971299457
12	34234	9.49	0.012416841634
12	34234	9.49	0.011205870871001
12	34234	9.49	0.018376402115001
12	34234	9.49	0.018417783529001
12	34234	9.49	0.017962029511001
12	34234	9.49	0.011818027099
12	34273	9.5	0.018749858223
12	34273	9.5	0.014356134453999
12	34273	9.5	0.014252902614
12	34273	9.5	0.010626425821
12	34273	9.5	0.011808198820001
12	34273	9.5	0.011164292069001
12	34273	9.5	0.018390096604
12	34273	9.5	0.018018681245
12	34273	9.5	0.015645224315
12	34273	9.5	0.010344787639999
12	34273	9.5	0.012878799640001
12	34273	9.5	0.015708905911
12	34273	9.5	0.014400933474001
12	34273	9.5	0.01109924937
12	34273	9.5	0.018622251234
12	34273	9.5	0.01701399583
12	34273	9.5	0.013737898002001
12	34273	9.5	0.012950390539
12	34273	9.5	0.017297687400001
12	34316	9.51	0.014109427737999
12	34316	9.51	0.012146960629
12	34316	9.51	0.011792948129999
12	34316	9.51	0.011727318907999
12	34316	9.51	0.010776423843
12	34316	9.51	0.017077970442999
12	34316	9.51	0.016320524357001
12	34316	9.51	0.014836851855
12	34316	9.51	0.026599556699001
12	34351	9.52	0.016831358539999
12	34351	9.52	0.016398995882
12	34351	9.52	0.021930390083
12	34351	9.52	0.015696231792999
12	34351	9.52	0.027942506942999
12	34351	9.52	0.012136943261
12	34351	9.52	0.010123376544
12	34351	9.52	0.019593142949999
12	34351	9.52	0.020471422309999
12	34351	9.52	0.015757412545
12	34351	9.52	0.010608271544999
12	34388	9.53	0.038480679393999
12	34388	9.53	0.016214674076
12	34388	9.53	0.033405065005999
12	34388	9.53	0.024294671757
12	34388	9.53	0.025262331486999
12	34388	9.53	0.024992342457999
12	34388	9.53	0.021947956241
12	34388	9.53	0.020858958097
12	34388	9.53	0.01940180767
12	34388	9.53	0.013017946718
12	34388	9.53	0.040586688091
12	34388	9.53	0.036819210171
12	34388	9.53	0.027845731456999
12	34388	9.53	0.0227600839
12	34388	9.53	0.021715981168999
12	34388	9.53	0.016752486299
12	34388	9.53	0.010476202205
12	34388	9.53	0.016892758068
12	34388	9.53	0.018549147050999
12	34388	9.53	0.016042386755
12	34388	9.53	0.013831104665
12	34388	9.53	0.014528992645999
12	34388	9.53	0.012522722595
12	34388	9.53	0.010971918657999
12	34429	9.54	0.010082242111999
12	34429	9.54	0.017952866827999
12	34429	9.54	0.015067876045999
12	34429	9.54	0.013352027494999
12	34429	9.54	0.019427254395
12	34429	9.54	0.017571269091999
12	34429	9.54	0.016845999472999
12	34429	9.54	0.011704404990999
12	34429	9.54	0.016387943428999
12	34429	9.54	0.014239998368
12	34429	9.54	0.010488239131
12	34460	9.55	0.017065507247999
12	34460	9.55	0.015635221843999
12	34460	9.55	0.013895370030999
12	34460	9.55	0.012482620017
12	34460	9.55	0.012435375249
12	34460	9.55	0.01762639783
12	34460	9.55	0.015716018359999
12	34460	9.55	0.014742938507998
12	34460	9.55	0.020293173245999
12	34497	9.56	0.010313595578001
12	34497	9.56	0.017113862815
12	34497	9.56	0.017178978808001
12	34497	9.56	0.014564920393001
12	34497	9.56	0.016555248669
12	34497	9.56	0.036656666675
12	34497	9.56	0.027745931250001
12	34497	9.56	0.026816109821
12	34497	9.56	0.01174956404
12	34497	9.56	0.024937111783
12	34497	9.56	0.023960952785
12	34497	9.56	0.014717410125
12	34497	9.56	0.010768321980001
12	34497	9.56	0.027642783500001
12	34497	9.56	0.029682971979001
12	34497	9.56	0.017776541159
12	34534	9.57	0.019222257598001
12	34534	9.57	0.024599595478
12	34534	9.57	0.013983838858001
12	34534	9.57	0.013295689891001
12	34534	9.57	0.017226821538001
12	34534	9.57	0.013868130360001
12	34534	9.57	0.013189978056001
12	34534	9.57	0.019013640767
12	34534	9.57	0.013362356608001
12	34534	9.57	0.019910069970001
12	34534	9.57	0.017231209877
12	34534	9.57	0.012002751759001
12	34534	9.57	0.031864659503
12	34534	9.57	0.019303365641001
12	34534	9.57	0.017541219052001
12	34569	9.58	0.012148713357
12	34569	9.58	0.013862199919
12	34569	9.58	0.013026205082999
12	34569	9.58	0.011366565798001
12	34569	9.58	0.010676204759001
12	34569	9.58	0.012717569715001
12	34569	9.58	0.016463586108001
12	34569	9.58	0.015489595936
12	34569	9.58	0.011126811042001
12	34569	9.58	0.017133652409001
12	34569	9.58	0.016203734834001
12	34569	9.58	0.011198981388
12	34600	9.59	0.014091725909999
12	34600	9.59	0.012002666428
12	34600	9.59	0.01505917215
12	34600	9.59	0.016324814852
12	34600	9.59	0.01544483658
12	34600	9.59	0.018434678089999
12	34600	9.59	0.024319618576
12	34600	9.59	0.016659524769
12	34600	9.59	0.015876942387001
12	34600	9.59	0.013776678167
12	34600	9.59	0.013729331738
12	34600	9.59	0.012754740258
12	34600	9.59	0.014387646068
12	34639	9.6	0.015169381054999
12	34639	9.6	0.015629067219001
12	34639	9.6	0.013482030469
12	34639	9.6	0.016414385377999
12	34639	9.6	0.010221657751
12	34639	9.6	0.017205133076001
12	34639	9.6	0.010703239887
12	34639	9.6	0.019549272412
12	34639	9.6	0.016860386358999
12	34639	9.6	0.019251337486001
12	34674	9.61	0.015610523739999
12	34674	9.61	0.014598652744999
12	34674	9.61	0.014140418569999
12	34674	9.61	0.018120335249
12	34674	9.61	0.017880229304
12	34674	9.61	0.0151046065
12	34674	9.61	0.014055410532
12	34674	9.61	0.011047486036
12	34674	9.61	0.015763044581
12	34674	9.61	0.011324144156999
12	34674	9.61	0.017017412233999
12	34674	9.61	0.011225906510999
12	34705	9.62	0.020569458628
12	34705	9.62	0.020265944823999
12	34705	9.62	0.017445479873999
12	34705	9.62	0.010523095062
12	34705	9.62	0.012054095041
12	34705	9.62	0.01988615686
12	34705	9.62	0.011026947603
12	34705	9.62	0.018603826925
12	34705	9.62	0.014526491344
12	34705	9.62	0.01310411069
12	34705	9.62	0.012780147600999
12	34705	9.62	0.019146340678999
12	34705	9.62	0.010609901999999
12	34705	9.62	0.018999288582
12	34732	9.63	0.011809766592
12	34732	9.63	0.013205762479
12	34732	9.63	0.016473549156999
12	34732	9.63	0.011116718665999
12	34732	9.63	0.014383980354999
12	34732	9.63	0.016172051366999
12	34732	9.63	0.016920217221999
12	34732	9.63	0.011673712744999
12	34732	9.63	0.011319984582999
12	34765	9.64	0.011118667026
12	34765	9.64	0.016002445299002
12	34765	9.64	0.018220234653
12	34765	9.64	0.017389083357001
12	34765	9.64	0.019838065624
12	34816	9.65	0.019064040876
12	34816	9.65	0.01352845948
12	34816	9.65	0.014403139569001
12	34816	9.65	0.012764191749001
12	34816	9.65	0.016717401075001
12	34816	9.65	0.017542827914001
12	34816	9.65	0.026351886489001
12	34867	9.66	0.047757998169001
12	34867	9.66	0.034345437934
12	34867	9.66	0.02754277855
12	34867	9.66	0.021169896067001
12	34867	9.66	0.017059746596001
12	34867	9.66	0.015825792604
12	34867	9.66	0.015242733982001
12	34867	9.66	0.015025152279
12	34867	9.66	0.013664653137001
12	34867	9.66	0.013644332547001
12	34867	9.66	0.019476216217001
12	34867	9.66	0.01765694903
12	34867	9.66	0.016058648016001
12	34867	9.66	0.017570729892
12	34867	9.66	0.015283143167
12	34867	9.66	0.011302913423
12	34867	9.66	0.018124309989
12	34867	9.66	0.018041776171
12	34867	9.66	0.013510143743
12	34867	9.66	0.012783865792001
12	34867	9.66	0.011533198691
12	34867	9.66	0.011291334079001
12	34902	9.67	0.017234604362001
12	34902	9.67	0.01768045875
12	34902	9.67	0.012079290303999
12	34902	9.67	0.010695948661001
12	34902	9.67	0.017437354693
12	34902	9.67	0.014613997476999
12	34902	9.67	0.015956703989
12	34902	9.67	0.014668528171001
12	34902	9.67	0.012294719234999
12	34902	9.67	0.016978912639001
12	34902	9.67	0.011455598826
12	34902	9.67	0.028820836264
12	34929	9.68	0.027450593099999
12	34929	9.68	0.025803647495
12	34929	9.68	0.025024121685
12	34929	9.68	0.023441780119001
12	34929	9.68	0.020974973711001
12	34929	9.68	0.014512834251001
12	34929	9.68	0.054428787514
12	34929	9.68	0.048695791526001
12	34929	9.68	0.047077526416
12	34929	9.68	0.044096589939
12	34929	9.68	0.038792603800999
12	34929	9.68	0.018764953119
12	34956	9.69	0.025878380231999
12	34956	9.69	0.025409400759999
12	34956	9.69	0.020608813715
12	34956	9.69	0.018286337211
12	34956	9.69	0.011903706966999
12	34956	9.69	0.031258154664
12	34956	9.69	0.031959868585
12	34956	9.69	0.029111803605
12	34956	9.69	0.028875156551999
12	34956	9.69	0.016655500224999
12	34956	9.69	0.016214891041999
12	34956	9.69	0.015491888799
12	34956	9.69	0.038294969997001
12	34956	9.69	0.033267724408999
12	34956	9.69	0.029984782137999
12	34956	9.69	0.010250347288
12	34956	9.69	0.028814629268
12	34956	9.69	0.025603392920999
12	34956	9.69	0.020675424628999
12	34956	9.69	0.010729799036
12	34956	9.69	0.012352964451999
12	34956	9.69	0.021616410518
12	34985	9.7	0.013691773962
12	34985	9.7	0.012849661575
12	34985	9.7	0.010587883915999
12	34985	9.7	0.01204160078
12	34985	9.7	0.011784911758999
12	34985	9.7	0.01023113115
12	34985	9.7	0.014525175937999
12	34985	9.7	0.013736973487999
12	35024	9.71	0.017147057307
12	35024	9.71	0.010556414523998
12	35024	9.71	0.019447820265999
12	35024	9.71	0.018440031303999
12	35024	9.71	0.017026718962999
12	35024	9.71	0.015712908434999
12	35024	9.71	0.011797643285
12	35024	9.71	0.010220579223999
12	35024	9.71	0.015525995451
12	35053	9.72	0.012795008239001
12	35053	9.72	0.012680628961
12	35053	9.72	0.015673587546001
12	35053	9.72	0.016673290508001
12	35053	9.72	0.015205795666001
12	35053	9.72	0.017086852674002
12	35053	9.72	0.016663398559
12	35053	9.72	0.01267805632
12	35053	9.72	0.017469476904001
12	35053	9.72	0.018142858856001
12	35053	9.72	0.017500302475002
12	35053	9.72	0.016670377939001
12	35053	9.72	0.016355462952001
12	35053	9.72	0.013443599772001
12	35086	9.73	0.010615190682001
12	35086	9.73	0.016158372558001
12	35086	9.73	0.010570935666001
12	35086	9.73	0.017519634023001
12	35086	9.73	0.018480189269001
12	35086	9.73	0.01095693293
12	35086	9.73	0.015662349475001
12	35086	9.73	0.018344646566
12	35111	9.74	0.012915204923001
12	35111	9.74	0.019371539159
12	35111	9.74	0.013920421518
12	35111	9.74	0.012483503273
12	35111	9.74	0.016465480333
12	35111	9.74	0.010573161405
12	35111	9.74	0.016711351582
12	35111	9.74	0.015709580422
12	35111	9.74	0.019139307750001
12	35111	9.74	0.010341910174001
12	35111	9.74	0.028484426971
12	35111	9.74	0.013986516799001
12	35144	9.75	0.010388856366001
12	35144	9.75	0.012400467605
12	35144	9.75	0.012850074862
12	35144	9.75	0.013419799647
12	35144	9.75	0.010823214317
12	35144	9.75	0.010964766336
12	35144	9.75	0.015732629898
12	35191	9.76	0.015402073084999
12	35191	9.76	0.014047048639
12	35191	9.76	0.013747896037
12	35191	9.76	0.011544026633
12	35191	9.76	0.016192827849
12	35191	9.76	0.013384577317
12	35191	9.76	0.017827523240999
12	35191	9.76	0.017516151141001
12	35191	9.76	0.013726402509
12	35191	9.76	0.012091938915001
12	35236	9.77	0.019822696226999
12	35236	9.77	0.019928115327
12	35236	9.77	0.017722426837
12	35236	9.77	0.010062345995999
12	35236	9.77	0.018444671883
12	35236	9.77	0.014564740752
12	35236	9.77	0.011601018722999
12	35236	9.77	0.010946809450999
12	35236	9.77	0.013778470486999
12	35236	9.77	0.010414558847
12	35236	9.77	0.011846815145999
12	35236	9.77	0.011833446296
12	35236	9.77	0.010356658603
12	35236	9.77	0.022386213298999
12	35236	9.77	0.015937865957
12	35236	9.77	0.01183127645
12	35236	9.77	0.017904356537001
12	35236	9.77	0.010212910423
12	35236	9.77	0.019319668413999
12	35273	9.78	0.018968548162
12	35273	9.78	0.019635483096
12	35273	9.78	0.017124244668999
12	35273	9.78	0.016818439688999
12	35273	9.78	0.010776527061999
12	35273	9.78	0.017409072595999
12	35273	9.78	0.019979736693999
12	35273	9.78	0.014255272027999
12	35273	9.78	0.016551398538999
12	35273	9.78	0.015438018575999
12	35273	9.78	0.012483409179
12	35300	9.79	0.025315694286
12	35300	9.79	0.018634688784999
12	35300	9.79	0.016883269400999
12	35300	9.79	0.016012815939
12	35300	9.79	0.014890436218
12	35300	9.79	0.028033923201999
12	35300	9.79	0.018542740299999
12	35300	9.79	0.016871853130999
12	35300	9.79	0.027477643830998
12	35300	9.79	0.029150631539999
12	35300	9.79	0.012035409363
12	35300	9.79	0.012736904908
12	35300	9.79	0.010544722719999
12	35300	9.79	0.020927684303999
12	35333	9.8	0.018354079754999
12	35333	9.8	0.012667489486999
12	35333	9.8	0.019972059234998
12	35333	9.8	0.033745526444999
12	35333	9.8	0.027780640243
12	35333	9.8	0.020897371050999
12	35333	9.8	0.019591676255999
12	35333	9.8	0.018378184752999
12	35368	9.81	0.018617984
12	35368	9.81	0.011137153630001
12	35368	9.81	0.011121528591001
12	35368	9.81	0.018399665407001
12	35368	9.81	0.012785745142001
12	35368	9.81	0.038834493782002
12	35368	9.81	0.036037224868
12	35368	9.81	0.012399602089001
12	35368	9.81	0.019483372996001
12	35401	9.82	0.030171598052
12	35401	9.82	0.018997086772
12	35401	9.82	0.015826673742
12	35401	9.82	0.010445956055001
12	35401	9.82	0.010087462048
12	35401	9.82	0.016609380449001
12	35401	9.82	0.014567111331001
12	35401	9.82	0.014497794449001
12	35401	9.82	0.038777475143
12	35401	9.82	0.034901858356001
12	35401	9.82	0.028198193931001
12	35401	9.82	0.026003225174
12	35401	9.82	0.018711489266
12	35401	9.82	0.014443362516001
12	35401	9.82	0.019274394234001
12	35401	9.82	0.01772954496
12	35401	9.82	0.022764213870001
12	35444	9.83	0.019243657232
12	35444	9.83	0.01708771391
12	35444	9.83	0.018796029988
12	35444	9.83	0.013582473648
12	35444	9.83	0.019503860184001
12	35444	9.83	0.013975352392
12	35473	9.84	0.026435436434999
12	35473	9.84	0.014172772809999
12	35473	9.84	0.013844824182
12	35473	9.84	0.011524915893
12	35473	9.84	0.014259098293
12	35473	9.84	0.023625029821
12	35473	9.84	0.045807935581999
12	35473	9.84	0.034347338028001
12	35473	9.84	0.025201630746
12	35473	9.84	0.011831797298001
12	35514	9.85	0.014754605572
12	35514	9.85	0.031411045741001
12	35514	9.85	0.029952959682999
12	35514	9.85	0.020662832539999
12	35514	9.85	0.019886843242
12	35559	9.86	0.039933818204
12	35559	9.86	0.037461343156
12	35559	9.86	0.036451576154999
12	35559	9.86	0.035936881777999
12	35559	9.86	0.034710694577999
12	35559	9.86	0.028115084817999
12	35559	9.86	0.019224072963999
12	35559	9.86	0.035655507926
12	35596	9.87	0.019806857903999
12	35596	9.87	0.016695761133999
12	35596	9.87	0.021736194884999
12	35596	9.87	0.021670834652999
12	35596	9.87	0.016674844208
12	35596	9.87	0.024602898368
12	35596	9.87	0.024306567590999
12	35596	9.87	0.019612807809999
12	35596	9.87	0.017366004437999
12	35596	9.87	0.02771679626
12	35596	9.87	0.019773099791999
12	35596	9.87	0.010394627301
12	35596	9.87	0.041729179628
12	35596	9.87	0.035424509797
12	35596	9.87	0.01382967853
12	35596	9.87	0.027733346650999
12	35596	9.87	0.018045831372
12	35596	9.87	0.037837192893999
12	35596	9.87	0.021672972307
12	35596	9.87	0.019701388081
12	35596	9.87	0.017906873098999
12	35596	9.87	0.015822756201999
12	35596	9.87	0.014394580333999
12	35596	9.87	0.013341321620999
12	35639	9.88	0.048214274783
12	35639	9.88	0.032606912809999
12	35639	9.88	0.031644390897998
12	35639	9.88	0.0296842603
12	35639	9.88	0.013689583004998
12	35639	9.88	0.060015910331
12	35639	9.88	0.058582629681998
12	35639	9.88	0.056003993879999
12	35639	9.88	0.039034997846999
12	35639	9.88	0.026639856187
12	35639	9.88	0.023873758076999
12	35639	9.88	0.016068162650999
12	35639	9.88	0.015932439270999
12	35639	9.88	0.014048840034999
12	35639	9.88	0.049617500341999
12	35639	9.88	0.045883698026
12	35639	9.88	0.040096714922999
12	35639	9.88	0.035745274206999
12	35639	9.88	0.033956103743
12	35639	9.88	0.032228379296999
12	35639	9.88	0.030343287592999
12	35639	9.88	0.010829871212
12	35639	9.88	0.018415362400999
12	35639	9.88	0.018416322485999
12	35639	9.88	0.016304043216
12	35639	9.88	0.013409587403999
12	35674	9.89	0.022586158308
12	35674	9.89	0.019079193536001
12	35674	9.89	0.010321590738
12	35674	9.89	0.014718953709
12	35674	9.89	0.018077954978001
12	35674	9.89	0.027918132184
12	35674	9.89	0.01362019782
12	35674	9.89	0.012072147847
12	35674	9.89	0.017520900816001
12	35674	9.89	0.014575517436
12	35674	9.89	0.020614383847001
12	35674	9.89	0.019601086495001
12	35674	9.89	0.019134900025001
12	35674	9.89	0.017324189610001
12	35674	9.89	0.016703335885001
12	35711	9.9	0.013236539157001
12	35711	9.9	0.013385477642
12	35711	9.9	0.013165914186001
12	35711	9.9	0.032667435692
12	35711	9.9	0.017152518575001
12	35711	9.9	0.01635085204
12	35711	9.9	0.013173217887001
12	35711	9.9	0.010734807603001
12	35711	9.9	0.027369120834001
12	35711	9.9	0.024428073020001
12	35711	9.9	0.021732822436
12	35711	9.9	0.019095513223
12	35711	9.9	0.018561202718001
12	35750	9.91	0.016352317214
12	35750	9.91	0.013422799845001
12	35750	9.91	0.018719212696
12	35750	9.91	0.013698245703001
12	35750	9.91	0.017861734459
12	35750	9.91	0.017325767955001
12	35750	9.91	0.014761275975001
12	35750	9.91	0.014987274139001
12	35750	9.91	0.016841093497
12	35750	9.91	0.013972963665001
12	35783	9.92	0.018999318266999
12	35783	9.92	0.016630989343
12	35783	9.92	0.040029791376
12	35783	9.92	0.035549315497001
12	35783	9.92	0.030303527975001
12	35783	9.92	0.029278189188
12	35783	9.92	0.012712626209
12	35783	9.92	0.023981467467999
12	35783	9.92	0.022203987089
12	35783	9.92	0.038229300821
12	35783	9.92	0.017366011763
12	35783	9.92	0.016653268362001
12	35783	9.92	0.014604954715001
12	35783	9.92	0.011569490851
12	35783	9.92	0.015959782595001
12	35783	9.92	0.018077275287
12	35783	9.92	0.015224585701
12	35812	9.93	0.018262820741
12	35812	9.93	0.010554003555001
12	35812	9.93	0.017154511720999
12	35812	9.93	0.016066268247
12	35812	9.93	0.029225895572999
12	35812	9.93	0.014340067924
12	35812	9.93	0.014623242212
12	35812	9.93	0.019360946829
12	35839	9.94	0.013729266554
12	35839	9.94	0.012737318754001
12	35839	9.94	0.014193858413
12	35839	9.94	0.010513801485001
12	35839	9.94	0.028310140811
12	35884	9.95	0.046601745969999
12	35884	9.95	0.036081385578999
12	35884	9.95	0.048839734150999
12	35884	9.95	0.041873309710999
12	35884	9.95	0.029776234905999
12	35884	9.95	0.023117496808
12	35884	9.95	0.018316610172999
12	35884	9.95	0.015243821299
12	35884	9.95	0.014117882095
12	35884	9.95	0.032727158919
12	35884	9.95	0.018725227417999
12	35884	9.95	0.011094975402999
12	35884	9.95	0.025783980484
12	35884	9.95	0.036401937074999
12	35884	9.95	0.015362528262999
12	35884	9.95	0.016213043835
12	35884	9.95	0.014392665349
12	35884	9.95	0.029513364292999
12	35884	9.95	0.027432140502999
12	35921	9.96	0.018211499309999
12	35921	9.96	0.012087698758998
12	35921	9.96	0.010777564346999
12	35921	9.96	0.010726183790998
12	35921	9.96	0.019658651796
12	35921	9.96	0.018844160563999
12	35921	9.96	0.019509170099999
12	35950	9.97	0.01615798011
12	35950	9.97	0.013660957561001
12	35950	9.97	0.011652654076
12	35950	9.97	0.019954781146001
12	35950	9.97	0.013018447589001
12	35993	9.98	0.035144023088
12	35993	9.98	0.034333710453001
12	35993	9.98	0.03429259232
12	35993	9.98	0.030220004022
12	35993	9.98	0.023546250597001
12	35993	9.98	0.020873083460001
12	35993	9.98	0.012173763907001
12	35993	9.98	0.011259162403
12	35993	9.98	0.037706637531
12	35993	9.98	0.035733911163002
12	35993	9.98	0.035025430345001
12	35993	9.98	0.03353158366
12	35993	9.98	0.032616749967001
12	35993	9.98	0.025857510668001
12	36024	9.99	0.043404290548001
12	36024	9.99	0.035320439036001
12	36024	9.99	0.032084893666001
12	36024	9.99	0.016824102629
12	36024	9.99	0.034099337034
12	36024	9.99	0.022413368046001
12	36024	9.99	0.03370056666
12	36024	9.99	0.010279150896
12	36024	9.99	0.037412831265
12	36024	9.99	0.024211928609001
12	36065	10	0.035300370268001
12	36065	10	0.02795141066
12	36065	10	0.020624759796
12	36065	10	0.012641644843001
12	36065	10	0.029977349666
12	36065	10	0.02501278115
12	36065	10	0.030330017606
12	36065	10	0.025488494739001
12	36065	10	0.020522976661001
12	36065	10	0.015799076071
12	36065	10	0.018707708708
12	36065	10	0.030157251131
12	36065	10	0.020061484915001
12	36065	10	0.018021832664001
12	36065	10	0.016210841655001
12	36065	10	0.023650596811001
12	36065	10	0.012905143620999
12	36065	10	0.010328070324

