version 2
run General-0-20191217-16:15:37-12944
attr configname General
attr datetime 20191217-16:15:37
attr experiment General
attr inifile omnetpp.ini
attr iterationvars ""
attr iterationvarsf ""
attr measurement ""
attr network CellularNetwork
attr processid 12944
attr repetition 0
attr replication #0
attr resultdir results
attr runnumber 0
attr seedset 0
param **.nUsers 10
param **.antenna.timeslot 0.01s
param **.user[*].lambda 0.008s

vector 0 CellularNetwork.antenna throughput:vector ETV
attr source throughput
vector 1 CellularNetwork.antenna NumServedUser:vector ETV
attr source NumServedUser
vector 2 CellularNetwork.antenna responseTime:vector ETV
attr source responseTime
2	69	0.02	0.02
2	69	0.02	0.02
2	69	0.02	0.02
2	69	0.02	0.013660992118
2	69	0.02	0.011626952607
2	69	0.02	0.02
2	69	0.02	0.018483342065
2	69	0.02	0.016535658673
2	69	0.02	0.015315443735
2	69	0.02	0.02
2	69	0.02	0.02
2	69	0.02	0.02
2	69	0.02	0.02
2	69	0.02	0.012486889865
2	69	0.02	0.010153558017
2	69	0.02	0.02
2	69	0.02	0.010428554145
2	108	0.03	0.011529447755
2	108	0.03	0.014517495115
2	108	0.03	0.019963034611
2	108	0.03	0.012135214899
2	108	0.03	0.015864069012
2	108	0.03	0.015822688978
2	108	0.03	0.014060656422
2	108	0.03	0.03
2	108	0.03	0.022718401333
2	108	0.03	0.022668403365
2	143	0.04	0.012702781447
2	143	0.04	0.012341463047
2	143	0.04	0.014116053375
2	143	0.04	0.014043839671
2	143	0.04	0.010134309985
2	143	0.04	0.012947860817
2	143	0.04	0.010468725297
2	143	0.04	0.011197635033
2	143	0.04	0.017872420396
2	143	0.04	0.010595238775
2	143	0.04	0.023078637351
2	168	0.05	0.014080793099
2	168	0.05	0.015885036685
2	168	0.05	0.015385820119
2	168	0.05	0.010656051184
2	213	0.06	0.019422957141
2	213	0.06	0.017951841895
2	213	0.06	0.029980645665
2	213	0.06	0.019108720311
2	213	0.06	0.037721772273
2	213	0.06	0.024353488832
2	213	0.06	0.022832283802
2	213	0.06	0.022209036113
2	213	0.06	0.021665292891
2	213	0.06	0.014320098687
2	213	0.06	0.017264543468
2	213	0.06	0.02815885661
2	213	0.06	0.027834110761
2	213	0.06	0.0154884298
2	213	0.06	0.011288440333
2	213	0.06	0.039489614363
2	213	0.06	0.038058110522
2	213	0.06	0.034080543131
2	252	0.07	0.017376390089
2	252	0.07	0.016176767397
2	252	0.07	0.010276695192
2	252	0.07	0.019788422712
2	252	0.07	0.01242551181
2	309	0.08	0.029348069707
2	309	0.08	0.02528377519
2	309	0.08	0.024367727422
2	309	0.08	0.024076422032
2	309	0.08	0.046495704458
2	309	0.08	0.023291768445
2	309	0.08	0.013581607692
2	336	0.09	0.017158191805
2	336	0.09	0.032698496995
2	336	0.09	0.026753003384
2	336	0.09	0.01874117731
2	336	0.09	0.012268386594
2	336	0.09	0.026988541626
2	336	0.09	0.022943163511
2	336	0.09	0.019175761249
2	336	0.09	0.01562086992
2	336	0.09	0.022949455537
2	336	0.09	0.016066448064
2	336	0.09	0.013911468193
2	336	0.09	0.012211401667
2	336	0.09	0.01158159781
2	336	0.09	0.028070260264
2	336	0.09	0.024305513887
2	336	0.09	0.022286659618
2	336	0.09	0.018819770196
2	336	0.09	0.018125112407
2	336	0.09	0.015792559639
2	336	0.09	0.023447773798
2	336	0.09	0.021870170683
2	336	0.09	0.016825029575
2	336	0.09	0.016436501902
2	336	0.09	0.012830455466
2	336	0.09	0.011751393269
2	336	0.09	0.033036393118
2	336	0.09	0.031138650515
2	336	0.09	0.028098912223
2	336	0.09	0.019704788543
2	336	0.09	0.010420876408
2	336	0.09	0.036089498946
2	367	0.1	0.021913956521
2	367	0.1	0.020302455795
2	367	0.1	0.015779890519
2	367	0.1	0.019313032845
2	367	0.1	0.016278471897
2	367	0.1	0.011964996115
2	367	0.1	0.01675842559
2	367	0.1	0.012296826633
2	367	0.1	0.017673453668
2	367	0.1	0.012494979685
2	367	0.1	0.043670142334
2	367	0.1	0.041592069278
2	367	0.1	0.033471789394
2	367	0.1	0.032276814554
2	367	0.1	0.02669100512
2	408	0.11	0.01619687634
2	408	0.11	0.050830871022
2	408	0.11	0.046724301909
2	408	0.11	0.03890075739
2	408	0.11	0.03655995458
2	408	0.11	0.015353399385
2	408	0.11	0.017813794864
2	408	0.11	0.014035575942
2	408	0.11	0.010041063319
2	408	0.11	0.018771738211
2	408	0.11	0.011535852338
2	408	0.11	0.013488942388
2	408	0.11	0.018622370525
2	408	0.11	0.015404513744
2	455	0.12	0.019405225403
2	455	0.12	0.01054779743
2	455	0.12	0.01345829422
2	455	0.12	0.011205185009
2	455	0.12	0.012796513625
2	455	0.12	0.011931196502
2	455	0.12	0.016909987817
2	486	0.13	0.019701531017
2	486	0.13	0.013488000845
2	486	0.13	0.020415827196
2	486	0.13	0.013013911775
2	486	0.13	0.012244632607
2	486	0.13	0.012069786181
2	486	0.13	0.011671774398
2	486	0.13	0.019976329198
2	486	0.13	0.019438079005
2	486	0.13	0.018015855318
2	486	0.13	0.010846427631
2	486	0.13	0.017701868127
2	486	0.13	0.010074851227
2	486	0.13	0.023691896144
2	486	0.13	0.02332649422
2	486	0.13	0.022526180386
2	486	0.13	0.020564802203
2	486	0.13	0.014780337951
2	486	0.13	0.011164281135
2	486	0.13	0.01023364532
2	486	0.13	0.026202296142
2	486	0.13	0.025535423791
2	486	0.13	0.018259579857
2	486	0.13	0.01715295769
2	486	0.13	0.020400483457
2	486	0.13	0.019869216225
2	509	0.14	0.019832632439
2	509	0.14	0.014049491547
2	509	0.14	0.011334107577
2	509	0.14	0.018043978399
2	509	0.14	0.01578877307
2	509	0.14	0.01468446058
2	509	0.14	0.01791247911
2	509	0.14	0.011130122888
2	509	0.14	0.013927361183
2	509	0.14	0.011016953049
2	556	0.15	0.018576014345
2	556	0.15	0.012865236593
2	556	0.15	0.015749640104
2	556	0.15	0.011656668195
2	556	0.15	0.013130151702
2	556	0.15	0.016817031117
2	599	0.16	0.019820225449
2	599	0.16	0.014566321454
2	599	0.16	0.010575393094
2	599	0.16	0.018971668815
2	599	0.16	0.016841734578
2	599	0.16	0.015165582729
2	599	0.16	0.012073036697
2	599	0.16	0.019836278567
2	599	0.16	0.018548100839
2	620	0.17	0.027838189971
2	620	0.17	0.024388415544
2	620	0.17	0.024070069348
2	620	0.17	0.016351893409
2	620	0.17	0.015173856341
2	620	0.17	0.010829351434
2	620	0.17	0.01484182464
2	620	0.17	0.014241594039
2	620	0.17	0.029501579992
2	620	0.17	0.025874165117
2	620	0.17	0.010976088041
2	620	0.17	0.028408365266
2	620	0.17	0.015982908127
2	620	0.17	0.011728254232
2	620	0.17	0.01103346536
2	661	0.18	0.017030187335
2	661	0.18	0.015241692231
2	661	0.18	0.01041207355
2	661	0.18	0.036846005857
2	661	0.18	0.035517302334
2	661	0.18	0.030398611012
2	661	0.18	0.026688268222
2	661	0.18	0.024269451991
2	661	0.18	0.022551628713
2	661	0.18	0.017988397089
2	704	0.19	0.016019599415
2	704	0.19	0.011251040823
2	704	0.19	0.018417704503
2	704	0.19	0.017160146982
2	704	0.19	0.01610089995
2	704	0.19	0.016997117036
2	704	0.19	0.014042571454
2	704	0.19	0.032528181622
2	704	0.19	0.024712020926
2	704	0.19	0.019353901928
2	704	0.19	0.019322473096
2	704	0.19	0.018836995332
2	704	0.19	0.018905720439
2	704	0.19	0.013941647608
2	704	0.19	0.035766744009
2	704	0.19	0.034811876781
2	733	0.2	0.013364110176
2	733	0.2	0.013097450752
2	733	0.2	0.014907092401
2	733	0.2	0.019840107778
2	733	0.2	0.018312956187
2	733	0.2	0.021266668807
2	733	0.2	0.018899402619
2	733	0.2	0.026195062586
2	766	0.21	0.02127426316
2	766	0.21	0.018312503985
2	766	0.21	0.018183702455
2	766	0.21	0.011175915731
2	766	0.21	0.011041043901
2	766	0.21	0.028143671174
2	766	0.21	0.026405338412
2	766	0.21	0.021394104534
2	766	0.21	0.021093639613
2	766	0.21	0.020388387726
2	766	0.21	0.020061052387
2	766	0.21	0.011376215886
2	766	0.21	0.013980846556
2	766	0.21	0.024793798744
2	766	0.21	0.013276452046
2	803	0.22	0.062482203444
2	803	0.22	0.045731097457
2	803	0.22	0.034467377002
2	803	0.22	0.034383525718
2	803	0.22	0.023202411541
2	803	0.22	0.022926693441
2	803	0.22	0.019781562573
2	803	0.22	0.014916976423
2	803	0.22	0.015453239499
2	803	0.22	0.010795515662
2	803	0.22	0.01823631575
2	803	0.22	0.012804705749
2	828	0.23	0.027711187757
2	828	0.23	0.022103349826
2	828	0.23	0.022894197123
2	828	0.23	0.020349380706
2	828	0.23	0.012295947484
2	828	0.23	0.014147989863
2	828	0.23	0.012296119258
2	828	0.23	0.011621250106
2	828	0.23	0.011302039097
2	828	0.23	0.017284631697
2	828	0.23	0.016447720801
2	828	0.23	0.010371961447
2	828	0.23	0.019450015463
2	828	0.23	0.019399263296
2	828	0.23	0.013984416236
2	828	0.23	0.01126658348
2	828	0.23	0.021646851633
2	828	0.23	0.016538063551
2	869	0.24	0.01810706918
2	869	0.24	0.016751558523
2	869	0.24	0.017405129164
2	869	0.24	0.012023247526
2	869	0.24	0.018457029647
2	869	0.24	0.012655439693
2	869	0.24	0.016874512745
2	896	0.25	0.018190286067
2	896	0.25	0.01217027204
2	896	0.25	0.019133145386
2	896	0.25	0.017536119282
2	896	0.25	0.016677859162
2	896	0.25	0.017945408976
2	896	0.25	0.013729885608
2	937	0.26	0.026991310498
2	937	0.26	0.015477738602
2	937	0.26	0.017298213333
2	937	0.26	0.016554508669
2	937	0.26	0.021012353575
2	937	0.26	0.020405623647
2	937	0.26	0.01375378631
2	937	0.26	0.017074639221
2	937	0.26	0.026233056857
2	937	0.26	0.020012249601
2	964	0.27	0.033117839921
2	964	0.27	0.03007622639
2	964	0.27	0.027456723301
2	964	0.27	0.026437903695
2	964	0.27	0.014541145765
2	964	0.27	0.010891252555
2	964	0.27	0.035100697574
2	964	0.27	0.017370338208
2	964	0.27	0.014431725144
2	964	0.27	0.011639433798
2	964	0.27	0.012406197814
2	964	0.27	0.019797663068
2	964	0.27	0.011382495519
2	964	0.27	0.014430093961
2	991	0.28	0.035015025811
2	991	0.28	0.022618544551
2	991	0.28	0.019434733101
2	991	0.28	0.012168988122
2	991	0.28	0.01144157233
2	991	0.28	0.025656638997
2	991	0.28	0.018523782565
2	991	0.28	0.023116081478
2	991	0.28	0.01429241368
2	1030	0.29	0.029951164408
2	1030	0.29	0.039627657879
2	1030	0.29	0.036304426148
2	1030	0.29	0.03160074719
2	1030	0.29	0.027210229304
2	1030	0.29	0.02457650029
2	1030	0.29	0.011393192794
2	1030	0.29	0.019746104967
2	1030	0.29	0.01898361072
2	1030	0.29	0.011033922904
2	1030	0.29	0.018727409844
2	1030	0.29	0.012212443503
2	1030	0.29	0.014121616645
2	1069	0.3	0.019746600107
2	1069	0.3	0.011643114993
2	1069	0.3	0.011481963853
2	1069	0.3	0.019479673475
2	1069	0.3	0.01961968575
2	1069	0.3	0.01687749995
2	1069	0.3	0.016912987306
2	1069	0.3	0.01490906537
2	1069	0.3	0.011675396218
2	1069	0.3	0.019315312131
2	1069	0.3	0.019182344254
2	1069	0.3	0.017864426256
2	1069	0.3	0.014856787922
2	1069	0.3	0.010817294513
2	1069	0.3	0.023226277631
2	1104	0.31	0.018487847852
2	1104	0.31	0.014146214728
2	1104	0.31	0.0193010225
2	1104	0.31	0.018510582609
2	1104	0.31	0.016038821281
2	1104	0.31	0.019949525141
2	1104	0.31	0.018940977342
2	1135	0.32	0.028246037908
2	1135	0.32	0.026511253753
2	1135	0.32	0.015332179996
2	1135	0.32	0.018026408394
2	1135	0.32	0.027712525916
2	1176	0.33	0.03250245143
2	1176	0.33	0.031764559186
2	1176	0.33	0.023935968954
2	1176	0.33	0.020661998073
2	1176	0.33	0.019960956733
2	1176	0.33	0.018322365306
2	1176	0.33	0.014128615757
2	1176	0.33	0.024526597665
2	1176	0.33	0.029434112523
2	1176	0.33	0.014722482297
2	1176	0.33	0.012984880732
2	1176	0.33	0.031538782534
2	1176	0.33	0.027742254158
2	1211	0.34	0.01343004561
2	1211	0.34	0.010115311634
2	1211	0.34	0.020591025356
2	1211	0.34	0.03186398109
2	1211	0.34	0.012822664809
2	1211	0.34	0.019149822367
2	1211	0.34	0.017706102215
2	1211	0.34	0.019942051278
2	1211	0.34	0.022714048727
2	1211	0.34	0.037620543451
2	1211	0.34	0.045176593266
2	1258	0.35	0.017593619393
2	1258	0.35	0.012709346897
2	1258	0.35	0.010896500079
2	1258	0.35	0.010690660924
2	1258	0.35	0.028444035141
2	1258	0.35	0.029468851168
2	1285	0.36	0.054050131684
2	1285	0.36	0.016659357873
2	1285	0.36	0.015028105954
2	1285	0.36	0.014113871767
2	1285	0.36	0.054740042609
2	1285	0.36	0.049698175708
2	1285	0.36	0.042054554225
2	1285	0.36	0.018488591326
2	1285	0.36	0.052712240965
2	1285	0.36	0.041709454876
2	1285	0.36	0.024327575011
2	1285	0.36	0.017240815333
2	1285	0.36	0.036072350423
2	1285	0.36	0.035713019937
2	1285	0.36	0.035282143015
2	1285	0.36	0.032759369695
2	1285	0.36	0.028335177616
2	1285	0.36	0.01496118013
2	1285	0.36	0.024175582355
2	1310	0.37	0.045305085744
2	1310	0.37	0.029648945291
2	1310	0.37	0.028476195745
2	1310	0.37	0.022151776666
2	1310	0.37	0.016787595095
2	1310	0.37	0.037283112223
2	1310	0.37	0.021360621751
2	1310	0.37	0.01563901511
2	1310	0.37	0.014791238548
2	1310	0.37	0.018594332675
2	1310	0.37	0.017002103822
2	1310	0.37	0.019923948434
2	1310	0.37	0.038825600484
2	1310	0.37	0.027552394516
2	1310	0.37	0.023832791665
2	1310	0.37	0.045607430288
2	1310	0.37	0.042920911218
2	1310	0.37	0.03794909167
2	1310	0.37	0.035631635463
2	1310	0.37	0.03349155832
2	1310	0.37	0.023639576368
2	1310	0.37	0.021811197627
2	1310	0.37	0.019038976122
2	1310	0.37	0.027550200064
2	1310	0.37	0.025121418587
2	1347	0.38	0.011409867807
2	1347	0.38	0.016117971618
2	1347	0.38	0.014786205505
2	1347	0.38	0.012569709977
2	1347	0.38	0.018816419245
2	1347	0.38	0.014232385058
2	1347	0.38	0.017639155595
2	1347	0.38	0.034650159487
2	1347	0.38	0.033890464786
2	1400	0.39	0.017467942223
2	1400	0.39	0.015429788292
2	1400	0.39	0.019527560422
2	1400	0.39	0.017941419745
2	1400	0.39	0.01154846379
2	1400	0.39	0.013941720904
2	1400	0.39	0.010165980488
2	1400	0.39	0.010145271245
2	1400	0.39	0.019181827452
2	1400	0.39	0.018232691369
2	1400	0.39	0.013636552601
2	1400	0.39	0.011014588873
2	1400	0.39	0.017723203858
2	1400	0.39	0.037892480626
2	1435	0.4	0.014906182361
2	1435	0.4	0.010768611904
2	1435	0.4	0.018542333323
2	1435	0.4	0.017474150125
2	1435	0.4	0.013603536166
2	1435	0.4	0.010127581957
2	1435	0.4	0.014141573483
2	1435	0.4	0.018035055053
2	1435	0.4	0.01590476301
2	1435	0.4	0.011066174191
2	1435	0.4	0.019966524821
2	1435	0.4	0.015704121764
2	1435	0.4	0.012261167318
2	1435	0.4	0.011636462514
2	1435	0.4	0.010192323991
2	1435	0.4	0.015277997247
2	1435	0.4	0.013655974475
2	1435	0.4	0.01808637927
2	1435	0.4	0.017569500151
2	1435	0.4	0.015824009348
2	1435	0.4	0.015473242445
2	1468	0.41	0.018019220696
2	1468	0.41	0.017091470764
2	1468	0.41	0.016208350145
2	1468	0.41	0.011813815242
2	1468	0.41	0.011053397376
2	1468	0.41	0.01992590148
2	1468	0.41	0.018564033006
2	1468	0.41	0.014173410117
2	1468	0.41	0.019501691962
2	1468	0.41	0.01695301421
2	1468	0.41	0.013863423181
2	1468	0.41	0.010876797357
2	1513	0.42	0.019322866664
2	1513	0.42	0.019181353037
2	1513	0.42	0.013055263091
2	1513	0.42	0.019169643073
2	1513	0.42	0.01403153451
2	1513	0.42	0.012562745513
2	1513	0.42	0.017855057218
2	1513	0.42	0.013977072755
2	1513	0.42	0.018550094674
2	1513	0.42	0.015759952006
2	1550	0.43	0.019765250574
2	1550	0.43	0.01945744274
2	1550	0.43	0.016518965111
2	1550	0.43	0.011605249259
2	1550	0.43	0.019867781114
2	1550	0.43	0.018946866689
2	1550	0.43	0.010699793956
2	1550	0.43	0.01526430265
2	1550	0.43	0.010823048142
2	1550	0.43	0.010650563269
2	1550	0.43	0.017223899649
2	1550	0.43	0.01607411802
2	1550	0.43	0.022873100063
2	1587	0.44	0.018983913998
2	1587	0.44	0.010228781763
2	1587	0.44	0.019884689769
2	1587	0.44	0.015169244211
2	1587	0.44	0.025348609108
2	1587	0.44	0.021171415472
2	1587	0.44	0.01069036618
2	1587	0.44	0.010124113613
2	1587	0.44	0.014150542107
2	1587	0.44	0.012374831613
2	1587	0.44	0.014284993645
2	1620	0.45	0.023439098657
2	1620	0.45	0.018791988275
2	1620	0.45	0.018760947029
2	1620	0.45	0.02363554392
2	1620	0.45	0.033995720814
2	1620	0.45	0.030073474057
2	1620	0.45	0.016567079963
2	1620	0.45	0.012946911501
2	1655	0.46	0.017946314912
2	1655	0.46	0.01350152768
2	1655	0.46	0.013232581421
2	1655	0.46	0.020405093187
2	1655	0.46	0.018198761283
2	1655	0.46	0.026611897561
2	1655	0.46	0.024645551152
2	1655	0.46	0.014015961513
2	1655	0.46	0.046352027211
2	1655	0.46	0.028765470322
2	1655	0.46	0.019497647174
2	1655	0.46	0.0330083786
2	1655	0.46	0.032436673232
2	1655	0.46	0.023628843843
2	1655	0.46	0.019415431293
2	1655	0.46	0.014013976505
2	1655	0.46	0.012326924194
2	1655	0.46	0.010471840749
2	1655	0.46	0.025882878507
2	1655	0.46	0.023420717516
2	1655	0.46	0.027970277451
2	1655	0.46	0.025721215344
2	1655	0.46	0.018831269171
2	1682	0.47	0.015084595886
2	1682	0.47	0.013115696555
2	1682	0.47	0.012063733893
2	1682	0.47	0.017402452047
2	1682	0.47	0.01758945321
2	1682	0.47	0.011950818949
2	1682	0.47	0.018390374731
2	1682	0.47	0.013775525622
2	1682	0.47	0.016000742595
2	1682	0.47	0.017071390433
2	1682	0.47	0.014466242827
2	1682	0.47	0.016196542452
2	1717	0.48	0.015377194479
2	1717	0.48	0.014541424567
2	1717	0.48	0.011462884322
2	1717	0.48	0.012426003606
2	1717	0.48	0.013676833395
2	1717	0.48	0.018648741799
2	1717	0.48	0.018105663336
2	1717	0.48	0.011253751686
2	1754	0.49	0.017647899414
2	1754	0.49	0.017243237141
2	1754	0.49	0.010457456558
2	1754	0.49	0.011951544681
2	1754	0.49	0.012909713838
2	1754	0.49	0.013501247809
2	1754	0.49	0.019063171805
2	1754	0.49	0.018100669796
2	1754	0.49	0.011514029418
2	1754	0.49	0.01609944532
2	1754	0.49	0.014363036532
2	1754	0.49	0.013048856342
2	1801	0.5	0.019981790785
2	1801	0.5	0.011373974847
2	1801	0.5	0.017373698153
2	1801	0.5	0.01420793898
2	1801	0.5	0.017486546403
2	1801	0.5	0.014942026269
2	1801	0.5	0.016857697968
2	1801	0.5	0.01607687953
2	1801	0.5	0.019453744616
2	1801	0.5	0.016691917829
2	1801	0.5	0.011508777589
2	1834	0.51	0.018822285988
2	1834	0.51	0.012766313271
2	1834	0.51	0.015969140888
2	1834	0.51	0.012839578139
2	1834	0.51	0.010916110235
2	1834	0.51	0.01069631511
2	1834	0.51	0.017598587382
2	1834	0.51	0.011395947957
2	1834	0.51	0.018562488065
2	1834	0.51	0.019162658926
2	1834	0.51	0.015072430464
2	1877	0.52	0.012940193563
2	1877	0.52	0.018450141482
2	1877	0.52	0.011281035446
2	1877	0.52	0.021787732554
2	1877	0.52	0.016000395001
2	1877	0.52	0.028320813288
2	1877	0.52	0.028309958957
2	1877	0.52	0.027292000449
2	1877	0.52	0.01456768428
2	1877	0.52	0.014315406684
2	1877	0.52	0.01061610916
2	1877	0.52	0.010040887629
2	1877	0.52	0.019237125488
2	1877	0.52	0.012618509157
2	1877	0.52	0.030562374093
2	1877	0.52	0.027068559673
2	1877	0.52	0.023520321462
2	1877	0.52	0.022537295624
2	1902	0.53	0.014366277684
2	1902	0.53	0.018978065051
2	1902	0.53	0.017794445722
2	1902	0.53	0.016427252107
2	1902	0.53	0.016521003435
2	1902	0.53	0.015476033154
2	1902	0.53	0.012567406745
2	1902	0.53	0.01231473823
2	1902	0.53	0.015469537929
2	1902	0.53	0.018371420731
2	1902	0.53	0.017772188957
2	1902	0.53	0.01169398574
2	1902	0.53	0.013377719915
2	1929	0.54	0.019119066289
2	1929	0.54	0.014597428309
2	1929	0.54	0.014528211623
2	1929	0.54	0.016290415617
2	1929	0.54	0.018075924813
2	1976	0.55	0.019283358587
2	1976	0.55	0.013987726877
2	1976	0.55	0.014074607352
2	1976	0.55	0.028256777342
2	1976	0.55	0.063858767071
2	1976	0.55	0.018796944077
2	2013	0.56	0.015044996211
2	2013	0.56	0.014397321832
2	2013	0.56	0.011068758723
2	2013	0.56	0.022279629872
2	2013	0.56	0.017981693656
2	2013	0.56	0.011379917939
2	2013	0.56	0.018977599433
2	2013	0.56	0.010069876243
2	2013	0.56	0.019124617926
2	2013	0.56	0.013423969643
2	2013	0.56	0.010714655755
2	2044	0.57	0.067661059092
2	2044	0.57	0.056102588869
2	2044	0.57	0.055255459729
2	2044	0.57	0.054730294399
2	2044	0.57	0.046144943371
2	2044	0.57	0.035245274096
2	2044	0.57	0.033831336254
2	2044	0.57	0.027847163475
2	2044	0.57	0.025125049703
2	2044	0.57	0.018646877785
2	2044	0.57	0.016306794496
2	2044	0.57	0.015028007369
2	2044	0.57	0.01451912751
2	2044	0.57	0.027146799181
2	2044	0.57	0.015947251485
2	2044	0.57	0.03186146131
2	2044	0.57	0.027652849732
2	2044	0.57	0.012065923224
2	2044	0.57	0.011515220695
2	2044	0.57	0.019045212853
2	2044	0.57	0.012654529921
2	2044	0.57	0.018692656286
2	2044	0.57	0.017824945574
2	2044	0.57	0.026421937817
2	2044	0.57	0.021880390121
2	2044	0.57	0.021231827136
2	2044	0.57	0.020757381818
2	2044	0.57	0.017999249085
2	2044	0.57	0.017992999489
2	2077	0.58	0.016186471498
2	2077	0.58	0.017745556197
2	2077	0.58	0.012951102695
2	2077	0.58	0.018277315204
2	2108	0.59	0.014146617594
2	2108	0.59	0.013792657441
2	2108	0.59	0.019566805623
2	2108	0.59	0.019393175897
2	2108	0.59	0.024278601177
2	2108	0.59	0.021521265337
2	2108	0.59	0.020549946466
2	2108	0.59	0.025978992658
2	2141	0.6	0.015943010784
2	2141	0.6	0.012024082159
2	2141	0.6	0.017577960502
2	2141	0.6	0.010778033547
2	2141	0.6	0.01820411718
2	2141	0.6	0.012158252579
2	2141	0.6	0.035084232879
2	2182	0.61	0.035496938893
2	2182	0.61	0.030160734358
2	2182	0.61	0.017916685836
2	2182	0.61	0.045364095972
2	2182	0.61	0.025337904643
2	2182	0.61	0.019751750112
2	2182	0.61	0.016635082787
2	2182	0.61	0.037157034596
2	2182	0.61	0.031339318901
2	2182	0.61	0.015982318362
2	2219	0.62	0.01760633486
2	2219	0.62	0.018180083323
2	2219	0.62	0.014130664693
2	2219	0.62	0.031410094162
2	2219	0.62	0.045894182626
2	2219	0.62	0.029389493417
2	2219	0.62	0.04985762244
2	2219	0.62	0.041475062561
2	2252	0.63	0.018433747846
2	2252	0.63	0.01547113795
2	2252	0.63	0.015953673977
2	2252	0.63	0.012792583609
2	2252	0.63	0.035991293369
2	2252	0.63	0.025771081315
2	2252	0.63	0.048573206913
2	2252	0.63	0.043059441173
2	2252	0.63	0.036252300721
2	2252	0.63	0.032514157522
2	2252	0.63	0.022965738376
2	2287	0.64	0.039423816697
2	2287	0.64	0.034007621623
2	2287	0.64	0.029753040346
2	2287	0.64	0.013283205227
2	2287	0.64	0.010154008538
2	2287	0.64	0.046682911066
2	2287	0.64	0.038174881392
2	2287	0.64	0.031387273128
2	2287	0.64	0.026727847655
2	2287	0.64	0.017082953095
2	2287	0.64	0.015127820481
2	2287	0.64	0.016523968895
2	2287	0.64	0.010936029615
2	2287	0.64	0.010482814903
2	2287	0.64	0.01396107003
2	2287	0.64	0.011973139674
2	2287	0.64	0.033013201431
2	2287	0.64	0.024952723945
2	2287	0.64	0.024631785573
2	2287	0.64	0.047902539505
2	2287	0.64	0.044969369694
2	2287	0.64	0.030416290641
2	2310	0.65	0.010989906629
2	2310	0.65	0.019696289719
2	2310	0.65	0.019629580422
2	2310	0.65	0.014355277829
2	2310	0.65	0.014100061202
2	2310	0.65	0.0495652206
2	2361	0.66	0.023094839563
2	2361	0.66	0.010150477176
2	2361	0.66	0.014899035565
2	2361	0.66	0.027019855949
2	2361	0.66	0.041904754957
2	2361	0.66	0.05555704581
2	2402	0.67	0.030665902829
2	2402	0.67	0.016258889289
2	2402	0.67	0.015221320804
2	2402	0.67	0.014395876807
2	2402	0.67	0.013482601926
2	2402	0.67	0.019855158383
2	2402	0.67	0.013198511918
2	2402	0.67	0.013680178696
2	2402	0.67	0.014364531933
2	2402	0.67	0.023623267187
2	2402	0.67	0.011249760296
2	2402	0.67	0.018846043915
2	2402	0.67	0.062414427225
2	2402	0.67	0.05858187993
2	2402	0.67	0.055685155896
2	2402	0.67	0.052663325431
2	2402	0.67	0.051981354127
2	2402	0.67	0.036652913286
2	2402	0.67	0.010195153891
2	2402	0.67	0.031632682865
2	2437	0.68	0.059186222831
2	2437	0.68	0.044918206594
2	2437	0.68	0.029871093148
2	2437	0.68	0.029775149515
2	2437	0.68	0.02921341628
2	2437	0.68	0.028198519204
2	2437	0.68	0.028036394828
2	2437	0.68	0.022882649904
2	2437	0.68	0.020721372449
2	2437	0.68	0.013926197566
2	2437	0.68	0.010688974815
2	2437	0.68	0.07051689318
2	2437	0.68	0.016660169683
2	2478	0.69	0.024765543664
2	2478	0.69	0.023102531002
2	2478	0.69	0.022627827083
2	2478	0.69	0.014102512809
2	2478	0.69	0.010062906533
2	2478	0.69	0.02784832361
2	2478	0.69	0.024597769133
2	2478	0.69	0.022489174064
2	2478	0.69	0.016282999684
2	2478	0.69	0.016877963368
2	2478	0.69	0.012752906054
2	2478	0.69	0.068334315698
2	2517	0.7	0.036145800959
2	2517	0.7	0.026492463314
2	2517	0.7	0.024398779239
2	2517	0.7	0.02168404794
2	2517	0.7	0.020825454933
2	2517	0.7	0.018288090931
2	2517	0.7	0.01195052888
2	2517	0.7	0.011201178892
2	2517	0.7	0.035737389256
2	2517	0.7	0.033796125155
2	2517	0.7	0.016162916669
2	2517	0.7	0.013788214636
2	2517	0.7	0.033416458405
2	2517	0.7	0.032385320926
2	2517	0.7	0.017712709604
2	2517	0.7	0.017586442407
2	2517	0.7	0.054150795205
2	2517	0.7	0.050821183417
2	2542	0.71	0.036057934935
2	2542	0.71	0.021210526936
2	2542	0.71	0.019571375393
2	2542	0.71	0.078780061499
2	2542	0.71	0.065466230197
2	2542	0.71	0.017588615787
2	2542	0.71	0.017220844799
2	2542	0.71	0.015105220504
2	2542	0.71	0.015995103446
2	2542	0.71	0.012214542334
2	2542	0.71	0.011296222372
2	2542	0.71	0.02842453649
2	2542	0.71	0.015131160021
2	2542	0.71	0.013282264337
2	2542	0.71	0.011009529069
2	2542	0.71	0.026102804511
2	2542	0.71	0.024494927379
2	2542	0.71	0.057683695034
2	2542	0.71	0.050024251397
2	2542	0.71	0.030278744563
2	2585	0.72	0.052811254276
2	2585	0.72	0.043678535564
2	2585	0.72	0.028022507188
2	2585	0.72	0.013598362387
2	2585	0.72	0.021079914224
2	2585	0.72	0.018596103869
2	2585	0.72	0.033091831598
2	2585	0.72	0.031125106177
2	2585	0.72	0.03074691374
2	2585	0.72	0.030055270696
2	2585	0.72	0.029240333943
2	2585	0.72	0.023945781292
2	2585	0.72	0.012934335826
2	2585	0.72	0.010297725189
2	2585	0.72	0.010025738723
2	2585	0.72	0.018690045875
2	2585	0.72	0.010475732324
2	2622	0.73	0.013032971403
2	2622	0.73	0.013773696688
2	2622	0.73	0.019781541024
2	2622	0.73	0.018894790475
2	2622	0.73	0.016817120821
2	2622	0.73	0.015787986832
2	2622	0.73	0.014058654169
2	2622	0.73	0.011155482641
2	2622	0.73	0.018038632989
2	2622	0.73	0.017474371344
2	2622	0.73	0.018920981242
2	2622	0.73	0.01345747005
2	2622	0.73	0.014362633269
2	2622	0.73	0.010950666637
2	2622	0.73	0.017107605869
2	2622	0.73	0.011217158382
2	2653	0.74	0.014472538348
2	2653	0.74	0.013745560208
2	2653	0.74	0.013225638343
2	2653	0.74	0.016487514733
2	2653	0.74	0.017021603259
2	2653	0.74	0.012127518347
2	2653	0.74	0.016277285186
2	2653	0.74	0.018666807723
2	2653	0.74	0.018261999194
2	2653	0.74	0.016713190305
2	2692	0.75	0.016103648511
2	2692	0.75	0.015372601976
2	2692	0.75	0.015121032432
2	2692	0.75	0.019204710898
2	2692	0.75	0.025705817503
2	2692	0.75	0.023389897548
2	2692	0.75	0.020555595234
2	2692	0.75	0.012359498162
2	2692	0.75	0.01935701839
2	2692	0.75	0.012308019947
2	2692	0.75	0.013418502547
2	2692	0.75	0.017473536052
2	2692	0.75	0.014686522444
2	2723	0.76	0.0169967991
2	2723	0.76	0.013162573974
2	2723	0.76	0.011211283361
2	2723	0.76	0.013304340978
2	2723	0.76	0.0191295211
2	2723	0.76	0.012293598144
2	2723	0.76	0.016220771264
2	2723	0.76	0.013364156558
2	2723	0.76	0.012857399858
2	2723	0.76	0.012670036062
2	2723	0.76	0.011518716035
2	2723	0.76	0.015945378142
2	2754	0.77	0.017293473345
2	2754	0.77	0.015288166057
2	2754	0.77	0.017907037807
2	2754	0.77	0.012448816747
2	2754	0.77	0.017788972819
2	2754	0.77	0.013459108033
2	2754	0.77	0.013818377066
2	2754	0.77	0.010964270726
2	2754	0.77	0.014053489449
2	2754	0.77	0.011305164544
2	2785	0.78	0.018567808611
2	2785	0.78	0.013888223718
2	2785	0.78	0.013315955682
2	2785	0.78	0.010169793802
2	2785	0.78	0.013190206075
2	2785	0.78	0.018488832056
2	2785	0.78	0.013225080445
2	2785	0.78	0.019811059357
2	2785	0.78	0.01611192908
2	2785	0.78	0.015895357821
2	2785	0.78	0.03372922776
2	2785	0.78	0.03052824692
2	2816	0.79	0.016019206688
2	2816	0.79	0.011052049036
2	2816	0.79	0.013318127009
2	2816	0.79	0.011598519635
2	2816	0.79	0.018451039885
2	2816	0.79	0.018293845197
2	2816	0.79	0.016283036585
2	2816	0.79	0.016359336165
2	2816	0.79	0.013435034147
2	2816	0.79	0.011634623688
2	2851	0.8	0.017304434586
2	2851	0.8	0.019793193691
2	2851	0.8	0.017023461069
2	2851	0.8	0.017189020964
2	2851	0.8	0.013208666248
2	2851	0.8	0.016346262934
2	2851	0.8	0.015377235752
2	2851	0.8	0.01522361924
2	2882	0.81	0.018387564278
2	2882	0.81	0.010893879536
2	2882	0.81	0.017132632951
2	2882	0.81	0.013067695507
2	2882	0.81	0.011560402182
2	2882	0.81	0.013929460162
2	2882	0.81	0.014742022476
2	2882	0.81	0.019024833225
2	2882	0.81	0.018196079646
2	2903	0.82	0.017828330433
2	2903	0.82	0.014698656973
2	2903	0.82	0.011838943519
2	2903	0.82	0.018012348812
2	2903	0.82	0.011116592269
2	2903	0.82	0.011730897202
2	2903	0.82	0.025502705766
2	2903	0.82	0.013958758414
2	2903	0.82	0.010739230143
2	2903	0.82	0.038915824739
2	2903	0.82	0.033212817417
2	2940	0.83	0.012556762324
2	2940	0.83	0.012651678463
2	2940	0.83	0.01920073774
2	2940	0.83	0.017050456658
2	2940	0.83	0.025863461412
2	2940	0.83	0.023794150473
2	2940	0.83	0.034151837315
2	2940	0.83	0.035459008315
2	2940	0.83	0.013998650304
2	2965	0.84	0.017537040261
2	2965	0.84	0.012264026796
2	2965	0.84	0.019660045001
2	2965	0.84	0.019331949713
2	2965	0.84	0.017650556804
2	2965	0.84	0.017191143717
2	2965	0.84	0.014704131251
2	2965	0.84	0.012431488429
2	2965	0.84	0.018859536298
2	2965	0.84	0.01287992328
2	2965	0.84	0.011620501838
2	2965	0.84	0.018565072682
2	2965	0.84	0.015394035514
2	3000	0.85	0.019704173636
2	3000	0.85	0.014847200776
2	3000	0.85	0.014127653136
2	3000	0.85	0.017509494773
2	3000	0.85	0.014450867629
2	3000	0.85	0.010609453536
2	3029	0.86	0.014384687749
2	3029	0.86	0.016302851843
2	3029	0.86	0.015973291256
2	3029	0.86	0.013456637779
2	3029	0.86	0.012919828851
2	3029	0.86	0.013564239694
2	3029	0.86	0.028407063216
2	3029	0.86	0.014935420569
2	3029	0.86	0.016238339127
2	3076	0.87	0.019446385446
2	3076	0.87	0.028713935555
2	3076	0.87	0.020767574962
2	3097	0.88	0.031092984736
2	3097	0.88	0.030574527483
2	3097	0.88	0.026796871113
2	3097	0.88	0.026259212487
2	3097	0.88	0.014824849531
2	3097	0.88	0.017536597089
2	3097	0.88	0.025889393607
2	3097	0.88	0.016900888545
2	3097	0.88	0.016841556294
2	3097	0.88	0.027359455986
2	3097	0.88	0.02632611088
2	3097	0.88	0.022040822383
2	3124	0.89	0.033476936264
2	3124	0.89	0.028364115972
2	3124	0.89	0.027547764428
2	3124	0.89	0.023309045717
2	3124	0.89	0.033950633685
2	3124	0.89	0.02145197498
2	3124	0.89	0.015998008519
2	3124	0.89	0.010589801883
2	3124	0.89	0.028929225464
2	3124	0.89	0.02877926144
2	3124	0.89	0.026189725559
2	3124	0.89	0.021514527235
2	3124	0.89	0.020371060984
2	3124	0.89	0.027274696142
2	3124	0.89	0.025043550405
2	3124	0.89	0.025225148196
2	3124	0.89	0.020461627367
2	3124	0.89	0.014910996403
2	3124	0.89	0.025192779765
2	3173	0.9	0.017258047872
2	3173	0.9	0.019982395757
2	3173	0.9	0.013123888255
2	3173	0.9	0.029888823231
2	3173	0.9	0.015488753412
2	3173	0.9	0.010035550412
2	3200	0.91	0.012776545162
2	3200	0.91	0.010079659801
2	3200	0.91	0.029317018918
2	3200	0.91	0.019620142013
2	3200	0.91	0.019508194343
2	3200	0.91	0.019151713304
2	3200	0.91	0.010880037875
2	3200	0.91	0.0198038003
2	3200	0.91	0.011783779343
2	3200	0.91	0.010502564725
2	3200	0.91	0.01747882605
2	3200	0.91	0.013557194176
2	3200	0.91	0.014953344028
2	3200	0.91	0.034592646096
2	3200	0.91	0.025305869598
2	3200	0.91	0.011686962259
2	3200	0.91	0.011131672547
2	3200	0.91	0.019710562032
2	3200	0.91	0.018160959838
2	3200	0.91	0.029983516759
2	3200	0.91	0.018255957317
2	3200	0.91	0.018248700626
2	3200	0.91	0.016298446388
2	3223	0.92	0.015205631455
2	3223	0.92	0.017070207362
2	3223	0.92	0.010052667646
2	3278	0.93	0.014955695441
2	3278	0.93	0.023146723373
2	3278	0.93	0.016097640217
2	3278	0.93	0.01110398987
2	3278	0.93	0.020038973541
2	3278	0.93	0.01893681756
2	3278	0.93	0.028390053699
2	3297	0.94	0.039960598847
2	3297	0.94	0.01997750542
2	3297	0.94	0.018121828604
2	3297	0.94	0.017636307613
2	3297	0.94	0.014431930132
2	3297	0.94	0.013643668534
2	3297	0.94	0.0133952779
2	3297	0.94	0.011212986409
2	3297	0.94	0.018480362078
2	3297	0.94	0.016539275139
2	3297	0.94	0.018952129449
2	3297	0.94	0.022730113039
2	3326	0.95	0.046636561718
2	3326	0.95	0.031014778377
2	3326	0.95	0.024026627719
2	3326	0.95	0.023640954068
2	3326	0.95	0.021643730748
2	3326	0.95	0.021037475869
2	3326	0.95	0.017849085871
2	3326	0.95	0.012609439518
2	3326	0.95	0.02933469859
2	3326	0.95	0.023710535108
2	3326	0.95	0.02274640623
2	3326	0.95	0.019986664806
2	3326	0.95	0.012071612579
2	3326	0.95	0.025624863072
2	3326	0.95	0.025349904077
2	3326	0.95	0.029052849465
2	3326	0.95	0.02840395446
2	3326	0.95	0.025070157919
2	3361	0.96	0.017470353225
2	3361	0.96	0.012118501867
2	3361	0.96	0.01218644012
2	3361	0.96	0.014304244852
2	3361	0.96	0.015106543692
2	3361	0.96	0.01771939325
2	3361	0.96	0.018181111263
2	3386	0.97	0.010421312203
2	3386	0.97	0.012343324337
2	3386	0.97	0.017415519316
2	3386	0.97	0.016464540968
2	3386	0.97	0.021042059513
2	3386	0.97	0.020521423246
2	3386	0.97	0.019371681888
2	3431	0.98	0.013606556371
2	3431	0.98	0.015352115952
2	3431	0.98	0.016038751771
2	3431	0.98	0.022413478133
2	3431	0.98	0.015725444893
2	3431	0.98	0.024252805988
2	3431	0.98	0.023964739228
2	3431	0.98	0.022965060458
2	3431	0.98	0.022793853881
2	3431	0.98	0.021528341641
2	3431	0.98	0.015948012677
2	3431	0.98	0.025701548179
2	3431	0.98	0.015506535387
2	3431	0.98	0.01801689495
2	3472	0.99	0.018874791416
2	3472	0.99	0.015749671699
2	3472	0.99	0.010420870378
2	3472	0.99	0.016471953464
2	3472	0.99	0.015826097111
2	3472	0.99	0.019416566129
2	3472	0.99	0.016135472841
2	3472	0.99	0.011405929018
2	3497	1	0.020418008499
2	3497	1	0.019383873903
2	3497	1	0.019639567456
2	3497	1	0.015701054438
2	3497	1	0.024575951221
2	3497	1	0.020808687953
2	3497	1	0.013290912041
2	3497	1	0.019979857826
2	3526	1.01	0.03553661074
2	3526	1.01	0.024375097373
2	3526	1.01	0.023012845075
2	3526	1.01	0.022676653096
2	3526	1.01	0.015708276424
2	3526	1.01	0.013317698269
2	3526	1.01	0.037712480834
2	3526	1.01	0.037178041802
2	3526	1.01	0.036935190799
2	3526	1.01	0.03660696595
2	3526	1.01	0.035799159069
2	3526	1.01	0.025299147888
2	3526	1.01	0.016713845769
2	3526	1.01	0.028962512072
2	3526	1.01	0.015951571823
2	3526	1.01	0.022448606428
2	3526	1.01	0.021579717591
2	3526	1.01	0.019993620404
2	3575	1.02	0.016081393997
2	3575	1.02	0.015870804071
2	3575	1.02	0.036153891416
2	3575	1.02	0.034138230831
2	3575	1.02	0.033956917399
2	3575	1.02	0.015293784552
2	3575	1.02	0.011488700982
2	3575	1.02	0.013573582744
2	3575	1.02	0.010742858453
2	3575	1.02	0.018479208067
2	3575	1.02	0.028548530527
2	3575	1.02	0.023289989331
2	3575	1.02	0.013998504792
2	3575	1.02	0.012033390296
2	3622	1.03	0.01905713811
2	3622	1.03	0.01837256853
2	3622	1.03	0.018195077744
2	3622	1.03	0.010179091039
2	3622	1.03	0.01701371385
2	3622	1.03	0.012851245096
2	3622	1.03	0.014088652907
2	3622	1.03	0.013366599135
2	3622	1.03	0.015047775187
2	3622	1.03	0.01410316116
2	3622	1.03	0.010547105645
2	3622	1.03	0.015898044497
2	3622	1.03	0.012774786565
2	3622	1.03	0.01263358829
2	3622	1.03	0.01896505564
2	3622	1.03	0.016945337997
2	3622	1.03	0.014199984675
2	3622	1.03	0.013613068344
2	3622	1.03	0.013214086647
2	3667	1.04	0.015405177419
2	3667	1.04	0.013653278694
2	3667	1.04	0.013536695514
2	3667	1.04	0.018592165381
2	3667	1.04	0.017809956147
2	3667	1.04	0.010015787635
2	3667	1.04	0.018725423459
2	3667	1.04	0.017937667607
2	3667	1.04	0.017408570024
2	3667	1.04	0.015130889292
2	3667	1.04	0.01301154975
2	3708	1.05	0.017231343384
2	3708	1.05	0.025045548435
2	3708	1.05	0.02446846328
2	3708	1.05	0.018667605179
2	3708	1.05	0.016069544279
2	3708	1.05	0.013167238458
2	3708	1.05	0.019756499645
2	3749	1.06	0.025333070275
2	3749	1.06	0.020922610448
2	3749	1.06	0.014993973787
2	3749	1.06	0.024938963414
2	3749	1.06	0.031359566805
2	3749	1.06	0.015457538263
2	3749	1.06	0.03633357848
2	3749	1.06	0.033997316192
2	3749	1.06	0.011696461336
2	3792	1.07	0.016638870007
2	3792	1.07	0.015502979575
2	3792	1.07	0.028756431382
2	3792	1.07	0.025994565621
2	3792	1.07	0.010661727667
2	3792	1.07	0.038903977212
2	3792	1.07	0.037783695996
2	3792	1.07	0.033507033463
2	3825	1.08	0.038024461308
2	3825	1.08	0.036685083369
2	3825	1.08	0.035341771968
2	3825	1.08	0.035224168036
2	3825	1.08	0.029072918094
2	3825	1.08	0.028939788057
2	3825	1.08	0.021327463114
2	3825	1.08	0.016424631485
2	3825	1.08	0.010445554598
2	3825	1.08	0.023621146947
2	3825	1.08	0.022378133981
2	3825	1.08	0.020490013331
2	3825	1.08	0.010850837077
2	3825	1.08	0.010207613281
2	3825	1.08	0.04351200512
2	3825	1.08	0.042248365913
2	3825	1.08	0.02318644275
2	3870	1.09	0.028991524457
2	3870	1.09	0.028613653013
2	3870	1.09	0.018777371499
2	3870	1.09	0.017665167798
2	3870	1.09	0.012461490877
2	3870	1.09	0.036661915332
2	3870	1.09	0.059334497954
2	3870	1.09	0.05814520982
2	3870	1.09	0.045089000995
2	3870	1.09	0.044016299707
2	3870	1.09	0.065688832347
2	3893	1.1	0.030773120985
2	3893	1.1	0.030276525734
2	3893	1.1	0.024680485844
2	3893	1.1	0.013584930652
2	3893	1.1	0.060010870634
2	3893	1.1	0.056280892346
2	3893	1.1	0.014642411756
2	3893	1.1	0.014241339394
2	3893	1.1	0.042146360519
2	3893	1.1	0.01280816161
2	3893	1.1	0.052270594598
2	3930	1.11	0.012197277496
2	3930	1.11	0.048239583413
2	3930	1.11	0.043262468426
2	3930	1.11	0.036300181731
2	3930	1.11	0.020984699983
2	3930	1.11	0.014636071283
2	3930	1.11	0.038108647424
2	3930	1.11	0.030118818651
2	3969	1.12	0.055951136811
2	3969	1.12	0.052253793528
2	3969	1.12	0.040915714853
2	3969	1.12	0.035719468428
2	3969	1.12	0.034178689566
2	3969	1.12	0.032985576311
2	3969	1.12	0.015925532539
2	3969	1.12	0.038920326811
2	3969	1.12	0.038404177733
2	3969	1.12	0.029003798787
2	3969	1.12	0.027395241792
2	3969	1.12	0.064106536471
2	3969	1.12	0.05571888702
2	3969	1.12	0.050685226239
2	3969	1.12	0.041452456941
2	3969	1.12	0.019606528539
2	3969	1.12	0.019468020227
2	3969	1.12	0.016298733284
2	3969	1.12	0.014707952139
2	3969	1.12	0.072067508224
2	4010	1.13	0.100580454266
2	4010	1.13	0.090406587684
2	4010	1.13	0.015716871987
2	4010	1.13	0.042746740378
2	4010	1.13	0.04161994506
2	4010	1.13	0.028829368014
2	4010	1.13	0.025586425428
2	4010	1.13	0.024024009704
2	4010	1.13	0.013847792144
2	4061	1.14	0.024365951768
2	4061	1.14	0.016599142398
2	4061	1.14	0.015332994359
2	4061	1.14	0.014933548739
2	4061	1.14	0.01385152594
2	4061	1.14	0.029955669101
2	4061	1.14	0.019981904523
2	4061	1.14	0.011672100763
2	4061	1.14	0.024219259006
2	4061	1.14	0.018840960736
2	4061	1.14	0.01107476486
2	4061	1.14	0.02424893115
2	4061	1.14	0.091880962779
2	4061	1.14	0.089822578109
2	4061	1.14	0.083714029001
2	4061	1.14	0.07479969302
2	4061	1.14	0.074200286836
2	4061	1.14	0.067062782513
2	4061	1.14	0.058133934635
2	4061	1.14	0.051813342622
2	4061	1.14	0.039638066208
2	4061	1.14	0.036365908338
2	4061	1.14	0.02197147667
2	4061	1.14	0.01553536834
2	4061	1.14	0.060132674385
2	4061	1.14	0.057313269736
2	4061	1.14	0.05439784041
2	4061	1.14	0.052356273243
2	4094	1.15	0.048124603514
2	4094	1.15	0.039884825797
2	4094	1.15	0.030107422779
2	4094	1.15	0.023990060702
2	4094	1.15	0.016393505138
2	4094	1.15	0.046441185062
2	4094	1.15	0.034642779447
2	4094	1.15	0.033455258889
2	4094	1.15	0.028249367246
2	4094	1.15	0.019033425257
2	4094	1.15	0.017419588828
2	4094	1.15	0.032375156201
2	4094	1.15	0.029799022679
2	4094	1.15	0.020736660361
2	4094	1.15	0.010281117552
2	4094	1.15	0.013729662403
2	4094	1.15	0.012549911098
2	4094	1.15	0.014854396279
2	4094	1.15	0.010334584682
2	4131	1.16	0.025330513641
2	4131	1.16	0.025186436317
2	4131	1.16	0.024450314777
2	4131	1.16	0.024096981648
2	4131	1.16	0.028475512647
2	4131	1.16	0.027241217309
2	4131	1.16	0.026710674955
2	4131	1.16	0.025603990772
2	4131	1.16	0.024037181646
2	4131	1.16	0.015687692892
2	4131	1.16	0.030186726714
2	4131	1.16	0.027143963356
2	4131	1.16	0.019779089573
2	4131	1.16	0.018463976955
2	4131	1.16	0.015660793568
2	4131	1.16	0.064872814586
2	4131	1.16	0.061510817417
2	4131	1.16	0.053875675153
2	4131	1.16	0.046702311514
2	4131	1.16	0.019406864317
2	4166	1.17	0.037792244446
2	4166	1.17	0.025555325179
2	4166	1.17	0.017774988063
2	4166	1.17	0.025924636287
2	4166	1.17	0.03014231317
2	4166	1.17	0.017586128132
2	4166	1.17	0.010107022481
2	4166	1.17	0.019264480039
2	4166	1.17	0.015630003386
2	4166	1.17	0.012659874865
2	4166	1.17	0.019029423913
2	4166	1.17	0.028075033817
2	4201	1.18	0.018604788488
2	4201	1.18	0.035419628592
2	4201	1.18	0.015143313291
2	4201	1.18	0.013688871814
2	4201	1.18	0.010173590426
2	4201	1.18	0.065860810572
2	4246	1.19	0.027559929062
2	4246	1.19	0.013823080463
2	4246	1.19	0.018307596516
2	4246	1.19	0.024377985811
2	4246	1.19	0.02231671754
2	4246	1.19	0.016468680327
2	4246	1.19	0.015477382565
2	4246	1.19	0.010664363213
2	4246	1.19	0.01881611067
2	4246	1.19	0.016653662507
2	4246	1.19	0.016435898549
2	4246	1.19	0.068537631979
2	4246	1.19	0.047433607415
2	4246	1.19	0.045191678092
2	4246	1.19	0.037631356145
2	4246	1.19	0.029760220105
2	4246	1.19	0.015642102286
2	4289	1.2	0.017409199044
2	4289	1.2	0.016702699839
2	4289	1.2	0.010021452227
2	4289	1.2	0.017453935713
2	4289	1.2	0.049708720705
2	4289	1.2	0.043595980523
2	4289	1.2	0.03290355701
2	4289	1.2	0.021456765568
2	4289	1.2	0.019664797632
2	4289	1.2	0.015850284348
2	4289	1.2	0.015229793406
2	4289	1.2	0.019783656809
2	4289	1.2	0.013688637286
2	4316	1.21	0.019005867197
2	4316	1.21	0.015466568833
2	4316	1.21	0.016063202112
2	4316	1.21	0.01520868552
2	4316	1.21	0.011997437522
2	4316	1.21	0.025291092799
2	4316	1.21	0.020009558913
2	4316	1.21	0.016381184874
2	4316	1.21	0.04249078672
2	4316	1.21	0.038483396868
2	4316	1.21	0.022036202249
2	4316	1.21	0.019841058611
2	4316	1.21	0.016603872297
2	4316	1.21	0.018055913325
2	4316	1.21	0.017367779783
2	4345	1.22	0.023626288825
2	4345	1.22	0.021095476065
2	4345	1.22	0.033883406296
2	4345	1.22	0.034616359699
2	4345	1.22	0.032428388312
2	4345	1.22	0.026990095386
2	4345	1.22	0.022709362432
2	4345	1.22	0.021700564972
2	4345	1.22	0.018141499582
2	4345	1.22	0.01352064283
2	4345	1.22	0.018126568351
2	4345	1.22	0.010027551592
2	4345	1.22	0.068592916389
2	4345	1.22	0.066010185157
2	4345	1.22	0.061975640283
2	4345	1.22	0.058387796152
2	4345	1.22	0.055796821596
2	4345	1.22	0.04636831446
2	4345	1.22	0.036381240787
2	4345	1.22	0.015795774353
2	4345	1.22	0.015483069404
2	4345	1.22	0.014882091607
2	4345	1.22	0.031029265258
2	4345	1.22	0.022297679734
2	4345	1.22	0.010325720363
2	4382	1.23	0.018158612467
2	4382	1.23	0.014168547424
2	4382	1.23	0.015965193565
2	4382	1.23	0.018891712444
2	4382	1.23	0.014933882867
2	4382	1.23	0.011200782765
2	4382	1.23	0.018907674461
2	4382	1.23	0.011252389046
2	4382	1.23	0.019287443086
2	4415	1.24	0.012160230109
2	4415	1.24	0.019431042092
2	4415	1.24	0.011114875275
2	4415	1.24	0.016002988317
2	4446	1.25	0.029585937373
2	4446	1.25	0.023397923921
2	4446	1.25	0.012526552315
2	4446	1.25	0.029702990562
2	4446	1.25	0.029678585543
2	4446	1.25	0.022051036081
2	4446	1.25	0.017856125044
2	4446	1.25	0.011774564541
2	4446	1.25	0.011584886827
2	4446	1.25	0.013349285311
2	4446	1.25	0.020022987367
2	4446	1.25	0.017206783725
2	4481	1.26	0.018489968564
2	4481	1.26	0.016125165104
2	4481	1.26	0.024715055708
2	4481	1.26	0.017327658479
2	4481	1.26	0.035161403438
2	4481	1.26	0.033954056061
2	4481	1.26	0.032099626021
2	4481	1.26	0.029044120633
2	4481	1.26	0.0156758937
2	4481	1.26	0.013050755917
2	4526	1.27	0.016838498079
2	4526	1.27	0.018953230714
2	4526	1.27	0.018190688667
2	4526	1.27	0.013886110963
2	4526	1.27	0.022351364163
2	4526	1.27	0.011798097464
2	4526	1.27	0.011348007985
2	4557	1.28	0.045103500008
2	4557	1.28	0.031787766569
2	4557	1.28	0.029984313584
2	4557	1.28	0.018230898767
2	4557	1.28	0.038176617072
2	4557	1.28	0.03075354408
2	4557	1.28	0.025261546633
2	4588	1.29	0.039866359353
2	4588	1.29	0.032821026187
2	4588	1.29	0.022711659738
2	4588	1.29	0.022514876319
2	4588	1.29	0.018496613882
2	4588	1.29	0.015507103727
2	4588	1.29	0.013668439568
2	4588	1.29	0.02809126606
2	4588	1.29	0.022358110181
2	4588	1.29	0.02151806035
2	4588	1.29	0.014949446314
2	4588	1.29	0.017403521084
2	4588	1.29	0.01421227576
2	4588	1.29	0.014045980915
2	4588	1.29	0.028226670208
2	4588	1.29	0.019138541656
2	4588	1.29	0.057805220757
2	4588	1.29	0.052475464142
2	4588	1.29	0.048188778799
2	4588	1.29	0.028341795635
2	4588	1.29	0.022672846002
2	4588	1.29	0.021959389397
2	4588	1.29	0.026705986574
2	4588	1.29	0.024863864384
2	4588	1.29	0.013789074379
2	4621	1.3	0.048613850299
2	4621	1.3	0.046065343241
2	4621	1.3	0.038413069774
2	4621	1.3	0.036548405039
2	4621	1.3	0.032578924134
2	4621	1.3	0.030735869396
2	4621	1.3	0.037455201787
2	4621	1.3	0.020175029705
2	4621	1.3	0.019572411935
2	4621	1.3	0.018081543621
2	4621	1.3	0.017257669874
2	4621	1.3	0.014403262206
2	4621	1.3	0.014198636718
2	4621	1.3	0.018419507216
2	4621	1.3	0.014178761018
2	4658	1.31	0.016528433734
2	4658	1.31	0.021328497363
2	4658	1.31	0.019096951842
2	4658	1.31	0.017079148409
2	4658	1.31	0.020001255031
2	4658	1.31	0.015747101382
2	4658	1.31	0.014872347007
2	4658	1.31	0.012228137574
2	4658	1.31	0.016185142548
2	4658	1.31	0.024820728
2	4658	1.31	0.017638413668
2	4658	1.31	0.014534952458
2	4658	1.31	0.012049415947
2	4658	1.31	0.013888135866
2	4689	1.32	0.017634940246
2	4689	1.32	0.017320037648
2	4689	1.32	0.012027920075
2	4689	1.32	0.017866299838
2	4689	1.32	0.013940382397
2	4689	1.32	0.013561712418
2	4689	1.32	0.019889467094
2	4689	1.32	0.015337677765
2	4689	1.32	0.014965032333
2	4689	1.32	0.013523397974
2	4689	1.32	0.010589491053
2	4689	1.32	0.016935041565
2	4689	1.32	0.016515292706
2	4724	1.33	0.018098624516
2	4724	1.33	0.014308291581
2	4724	1.33	0.011433930869
2	4724	1.33	0.014408599307
2	4724	1.33	0.016827688609
2	4724	1.33	0.014320236083
2	4724	1.33	0.01826742634
2	4724	1.33	0.015191596162
2	4724	1.33	0.010957554259
2	4724	1.33	0.013479459892
2	4763	1.34	0.017159030255
2	4763	1.34	0.015561990612
2	4763	1.34	0.015355676575
2	4763	1.34	0.01993507266
2	4763	1.34	0.018974923947
2	4763	1.34	0.011074961086
2	4763	1.34	0.012376324417
2	4763	1.34	0.017812100898
2	4763	1.34	0.01120629952
2	4763	1.34	0.010199343913
2	4763	1.34	0.018586409693
2	4763	1.34	0.016747296869
2	4806	1.35	0.017014314708
2	4806	1.35	0.01506257002
2	4806	1.35	0.01509358105
2	4806	1.35	0.018504438349
2	4806	1.35	0.019366601981
2	4806	1.35	0.015833859562
2	4806	1.35	0.018892605245
2	4806	1.35	0.017662957299
2	4806	1.35	0.016481178958
2	4806	1.35	0.016017599302
2	4806	1.35	0.019887312869
2	4806	1.35	0.018161806268
2	4806	1.35	0.014872970566
2	4806	1.35	0.016012640796
2	4843	1.36	0.015550560312
2	4843	1.36	0.012996016702
2	4843	1.36	0.010881565282
2	4843	1.36	0.012613626287
2	4843	1.36	0.010213013162
2	4843	1.36	0.016912500936
2	4843	1.36	0.01345594294
2	4843	1.36	0.016367852112
2	4866	1.37	0.022961002325
2	4866	1.37	0.014484847837
2	4866	1.37	0.011963076225
2	4866	1.37	0.02483695037
2	4866	1.37	0.010554795208
2	4866	1.37	0.023215974797
2	4866	1.37	0.020994928229
2	4866	1.37	0.026404961264
2	4866	1.37	0.020250728065
2	4866	1.37	0.019728428908
2	4866	1.37	0.01337878986
2	4866	1.37	0.029653548164
2	4866	1.37	0.029015566062
2	4866	1.37	0.012516633858
2	4866	1.37	0.016386105269
2	4893	1.38	0.029496853375
2	4893	1.38	0.029113913855
2	4893	1.38	0.029006498582
2	4893	1.38	0.026965263281
2	4893	1.38	0.017097605185
2	4893	1.38	0.015656684399
2	4893	1.38	0.016229718755
2	4893	1.38	0.01079575407
2	4893	1.38	0.01273603476
2	4893	1.38	0.02736346432
2	4893	1.38	0.024421835548
2	4893	1.38	0.017144629068
2	4934	1.39	0.010983919434
2	4934	1.39	0.018622552758
2	4934	1.39	0.014798575521
2	4934	1.39	0.017088071206
2	4934	1.39	0.016603168771
2	4934	1.39	0.011310620334
2	4934	1.39	0.019486177062
2	4934	1.39	0.0140148983
2	4957	1.4	0.015156117463
2	4957	1.4	0.012685497682
2	4957	1.4	0.018658449035
2	4957	1.4	0.019507910431
2	4957	1.4	0.019173217451
2	4957	1.4	0.01822150148
2	4957	1.4	0.017899015438
2	4957	1.4	0.019870742569
2	4957	1.4	0.014513854958
2	4957	1.4	0.01131963856
2	4957	1.4	0.019638482655
2	4957	1.4	0.014925135124
2	5002	1.41	0.015245690516
2	5002	1.41	0.017626269952
2	5002	1.41	0.027926930615
2	5002	1.41	0.02130568186
2	5002	1.41	0.02108849349
2	5002	1.41	0.019969387924
2	5037	1.42	0.023202042304
2	5037	1.42	0.018163724764
2	5037	1.42	0.014366347368
2	5037	1.42	0.028464365473
2	5037	1.42	0.019650896969
2	5037	1.42	0.016878093303
2	5037	1.42	0.0154772503
2	5037	1.42	0.010621133063
2	5037	1.42	0.013539088825
2	5037	1.42	0.016298801411
2	5037	1.42	0.013250542315
2	5037	1.42	0.010653882552
2	5037	1.42	0.011656525893
2	5037	1.42	0.016269210097
2	5037	1.42	0.014307531006
2	5037	1.42	0.01396697235
2	5070	1.43	0.034643525735
2	5070	1.43	0.026810974947
2	5070	1.43	0.021555071554
2	5070	1.43	0.016326705842
2	5070	1.43	0.029400030913
2	5070	1.43	0.013044048493
2	5070	1.43	0.017806415255
2	5070	1.43	0.010050903478
2	5070	1.43	0.01333942613
2	5070	1.43	0.018546874474
2	5070	1.43	0.019004377519
2	5070	1.43	0.011214409892
2	5070	1.43	0.010426065099
2	5070	1.43	0.015345190585
2	5070	1.43	0.015095778102
2	5070	1.43	0.014331405191
2	5099	1.44	0.018809980481
2	5099	1.44	0.015251935983
2	5099	1.44	0.014373970836
2	5099	1.44	0.014359907984
2	5099	1.44	0.018363325551
2	5099	1.44	0.017517653896
2	5099	1.44	0.012454207403
2	5099	1.44	0.012429923373
2	5099	1.44	0.010039632802
2	5099	1.44	0.018417903549
2	5099	1.44	0.011386463503
2	5142	1.45	0.019422973269
2	5142	1.45	0.016431618694
2	5142	1.45	0.017149415874
2	5142	1.45	0.014679692353
2	5142	1.45	0.010158664337
2	5142	1.45	0.014050327396
2	5175	1.46	0.027082267222
2	5175	1.46	0.018709380255
2	5175	1.46	0.011616652575
2	5175	1.46	0.017808607106
2	5175	1.46	0.01529332532
2	5175	1.46	0.010079448144
2	5175	1.46	0.010587922386
2	5175	1.46	0.014620751345
2	5175	1.46	0.012040162007
2	5175	1.46	0.011870586095
2	5175	1.46	0.016582285283
2	5175	1.46	0.029624988573
2	5175	1.46	0.017367225428
2	5214	1.47	0.015939862626
2	5214	1.47	0.014788251575
2	5214	1.47	0.018179742227
2	5214	1.47	0.010557354715
2	5214	1.47	0.0142568372
2	5214	1.47	0.03531185741
2	5214	1.47	0.025172491908
2	5214	1.47	0.024583014199
2	5214	1.47	0.020949829484
2	5214	1.47	0.016315601154
2	5214	1.47	0.013882231956
2	5214	1.47	0.012138594246
2	5214	1.47	0.010011691649
2	5214	1.47	0.02299160011
2	5214	1.47	0.017436275142
2	5214	1.47	0.025646946696
2	5251	1.48	0.019886022628
2	5251	1.48	0.010698368687
2	5251	1.48	0.015523715943
2	5251	1.48	0.012167592979
2	5251	1.48	0.017275734086
2	5251	1.48	0.01392740174
2	5251	1.48	0.013156551975
2	5251	1.48	0.015984591954
2	5251	1.48	0.011226694347
2	5251	1.48	0.027209994222
2	5251	1.48	0.017211318313
2	5251	1.48	0.014699890249
2	5251	1.48	0.012649618685
2	5280	1.49	0.019137222895
2	5280	1.49	0.011719824201
2	5280	1.49	0.015678113937
2	5280	1.49	0.016692381711
2	5280	1.49	0.012642456857
2	5280	1.49	0.017728337964
2	5280	1.49	0.01403535957
2	5280	1.49	0.016317647951
2	5280	1.49	0.01737360739
2	5280	1.49	0.015963910555
2	5280	1.49	0.025667796365
2	5313	1.5	0.018197869654
2	5313	1.5	0.012683893267
2	5313	1.5	0.016057857694
2	5313	1.5	0.018355085182
2	5313	1.5	0.017419492662
2	5313	1.5	0.017355685565
2	5313	1.5	0.012063833458
2	5313	1.5	0.027123662114
2	5313	1.5	0.017863675728
2	5348	1.51	0.019168805978
2	5348	1.51	0.01386958817
2	5348	1.51	0.012753554131
2	5348	1.51	0.011958515042
2	5348	1.51	0.018243294008
2	5348	1.51	0.013914672034
2	5348	1.51	0.019185321412
2	5348	1.51	0.019242637821
2	5348	1.51	0.044665271683
2	5348	1.51	0.031886030839
2	5348	1.51	0.031524334836
2	5348	1.51	0.028464907099
2	5348	1.51	0.019691919075
2	5348	1.51	0.01556832513
2	5348	1.51	0.015483439321
2	5389	1.52	0.018049402296
2	5389	1.52	0.017146994221
2	5389	1.52	0.017038980129
2	5389	1.52	0.019717178605
2	5389	1.52	0.017461599631
2	5389	1.52	0.01060133584
2	5389	1.52	0.015394770037
2	5389	1.52	0.014039548062
2	5389	1.52	0.016112439438
2	5389	1.52	0.012613201965
2	5389	1.52	0.017840601045
2	5389	1.52	0.01280923589
2	5434	1.53	0.018180861139
2	5434	1.53	0.015730960485
2	5434	1.53	0.010482898339
2	5434	1.53	0.011374464427
2	5434	1.53	0.013973054482
2	5434	1.53	0.018931446877
2	5434	1.53	0.011071158797
2	5434	1.53	0.01013189053
2	5434	1.53	0.019338592986
2	5434	1.53	0.019229779346
2	5434	1.53	0.014627586453
2	5434	1.53	0.013795784208
2	5434	1.53	0.010888504674
2	5434	1.53	0.010665042349
2	5469	1.54	0.019465357786
2	5469	1.54	0.017738501964
2	5469	1.54	0.026922797464
2	5469	1.54	0.016790144116
2	5469	1.54	0.014090703551
2	5469	1.54	0.011302637315
2	5469	1.54	0.01573755672
2	5469	1.54	0.018755522204
2	5469	1.54	0.014820030863
2	5469	1.54	0.019657175152
2	5469	1.54	0.016029776111
2	5469	1.54	0.015321955594
2	5506	1.55	0.018579214156
2	5506	1.55	0.012768634509
2	5506	1.55	0.025041789536
2	5506	1.55	0.024432395075
2	5506	1.55	0.022155230387
2	5506	1.55	0.014308547209
2	5506	1.55	0.01367205777
2	5506	1.55	0.023382077401
2	5506	1.55	0.01559820227
2	5506	1.55	0.010678688473
2	5506	1.55	0.018048258125
2	5506	1.55	0.01764422287
2	5506	1.55	0.013002752447
2	5506	1.55	0.011931718041
2	5506	1.55	0.014314927706
2	5506	1.55	0.011797689989
2	5506	1.55	0.023863100029
2	5506	1.55	0.023485234248
2	5545	1.56	0.010112487571
2	5545	1.56	0.016526259805
2	5545	1.56	0.014925128947
2	5545	1.56	0.01653520278
2	5545	1.56	0.013025335245
2	5545	1.56	0.011739917228
2	5545	1.56	0.019041178529
2	5545	1.56	0.016713630313
2	5545	1.56	0.019851631647
2	5584	1.57	0.010568404546
2	5584	1.57	0.010291216307
2	5584	1.57	0.014564683593
2	5584	1.57	0.029895368802
2	5584	1.57	0.028357495313
2	5584	1.57	0.020807533675
2	5584	1.57	0.013549101453
2	5584	1.57	0.012912916561
2	5584	1.57	0.017914067953
2	5584	1.57	0.018599738921
2	5584	1.57	0.012364873316
2	5584	1.57	0.010441721471
2	5629	1.58	0.01528576005
2	5629	1.58	0.014919763607
2	5629	1.58	0.030133164237
2	5629	1.58	0.022229107554
2	5629	1.58	0.021932895468
2	5629	1.58	0.014026161375
2	5629	1.58	0.012415647017
2	5629	1.58	0.018927802267
2	5629	1.58	0.013601767486
2	5629	1.58	0.018087520386
2	5629	1.58	0.011787816832
2	5629	1.58	0.011525772691
2	5629	1.58	0.017563412669
2	5629	1.58	0.016062175202
2	5629	1.58	0.026541659894
2	5629	1.58	0.024190637177
2	5660	1.59	0.014856289378
2	5660	1.59	0.011533025182
2	5660	1.59	0.011845869426
2	5660	1.59	0.013591482914
2	5660	1.59	0.017573767957
2	5660	1.59	0.01632261743
2	5660	1.59	0.028228923207
2	5660	1.59	0.024139046887
2	5660	1.59	0.019744041676
2	5660	1.59	0.019202814206
2	5660	1.59	0.015811766342
2	5660	1.59	0.012197114289
2	5660	1.59	0.038200981614
2	5660	1.59	0.021188034545
2	5660	1.59	0.013648446312
2	5660	1.59	0.013179371758
2	5660	1.59	0.011049487782
2	5660	1.59	0.010521208629
2	5660	1.59	0.010000522879
2	5660	1.59	0.011499804856
2	5660	1.59	0.010283215848
2	5695	1.6	0.014079081414
2	5695	1.6	0.013347918361
2	5695	1.6	0.011746418858
2	5695	1.6	0.010504761835
2	5695	1.6	0.01939636067
2	5695	1.6	0.018902544281
2	5695	1.6	0.01008798924
2	5695	1.6	0.015851412101
2	5738	1.61	0.01635392439
2	5738	1.61	0.018087382852
2	5738	1.61	0.014582996175
2	5738	1.61	0.014416871796
2	5738	1.61	0.018111494
2	5738	1.61	0.016182854776
2	5738	1.61	0.027347680748
2	5738	1.61	0.019149381167
2	5738	1.61	0.025748976372
2	5738	1.61	0.018244970052
2	5775	1.62	0.019368545246
2	5775	1.62	0.018370502622
2	5775	1.62	0.014933822748
2	5775	1.62	0.01964409148
2	5775	1.62	0.019104117296
2	5775	1.62	0.015239297273
2	5775	1.62	0.014776215336
2	5775	1.62	0.012093472008
2	5775	1.62	0.011034473716
2	5775	1.62	0.019851981088
2	5775	1.62	0.013520439509
2	5775	1.62	0.014380580872
2	5775	1.62	0.010039180378
2	5775	1.62	0.017695169119
2	5775	1.62	0.02579606031
2	5775	1.62	0.016340984648
2	5775	1.62	0.013414587992
2	5775	1.62	0.027868372193
2	5808	1.63	0.017609184107
2	5808	1.63	0.018489057502
2	5808	1.63	0.015972803454
2	5808	1.63	0.010101053103
2	5808	1.63	0.013130740519
2	5808	1.63	0.011192694797
2	5808	1.63	0.017932237798
2	5808	1.63	0.0177482023
2	5808	1.63	0.012366030184
2	5808	1.63	0.015208585475
2	5808	1.63	0.015414696846
2	5808	1.63	0.014117448102
2	5808	1.63	0.011270627062
2	5808	1.63	0.03519779488
2	5808	1.63	0.032586288661
2	5837	1.64	0.016467847946
2	5837	1.64	0.012217440768
2	5837	1.64	0.013681086363
2	5837	1.64	0.010921317061
2	5837	1.64	0.017333130656
2	5837	1.64	0.013447144908
2	5837	1.64	0.011037812933
2	5837	1.64	0.019067233555
2	5837	1.64	0.016922021615
2	5837	1.64	0.014222638782
2	5870	1.65	0.015300948985
2	5870	1.65	0.019624270712
2	5870	1.65	0.018335708954
2	5870	1.65	0.012125189934
2	5870	1.65	0.01893599933
2	5870	1.65	0.018749674268
2	5870	1.65	0.013644687037
2	5870	1.65	0.026647757508
2	5870	1.65	0.017633562938
2	5915	1.66	0.016801436395
2	5915	1.66	0.015205473404
2	5915	1.66	0.01128491218
2	5915	1.66	0.017407463665
2	5915	1.66	0.013534539598
2	5915	1.66	0.0147191419
2	5915	1.66	0.014607398907
2	5915	1.66	0.027584176602
2	5915	1.66	0.010482380786
2	5944	1.67	0.017705580648
2	5944	1.67	0.014360094439
2	5944	1.67	0.012231652064
2	5944	1.67	0.019736832375
2	5944	1.67	0.010757007159
2	5944	1.67	0.01719805124
2	5944	1.67	0.019454508339
2	5944	1.67	0.015739136797
2	5944	1.67	0.017748586607
2	5944	1.67	0.028659850921
2	5944	1.67	0.023337470435
2	5944	1.67	0.019428318064
2	5981	1.68	0.018114060632
2	5981	1.68	0.010356812913
2	5981	1.68	0.0231163137
2	5981	1.68	0.023053496208
2	5981	1.68	0.019427432856
2	5981	1.68	0.015864396737
2	5981	1.68	0.015787168058
2	5981	1.68	0.0262535876
2	5981	1.68	0.025625770909
2	5981	1.68	0.024557611645
2	5981	1.68	0.012478647869
2	5981	1.68	0.030068255076
2	5981	1.68	0.028671926964
2	5981	1.68	0.017701397693
2	5981	1.68	0.013821462729
2	5981	1.68	0.027005177726
2	5981	1.68	0.015567809972
2	6018	1.69	0.016658348532
2	6018	1.69	0.01836977342
2	6018	1.69	0.016010862563
2	6018	1.69	0.013868048816
2	6018	1.69	0.019292569791
2	6018	1.69	0.01808284957
2	6018	1.69	0.016974264507
2	6018	1.69	0.011020672309
2	6018	1.69	0.011020650009
2	6018	1.69	0.017669530526
2	6018	1.69	0.011099631584
2	6018	1.69	0.01903218165
2	6018	1.69	0.016750039958
2	6047	1.7	0.016763210419
2	6047	1.7	0.011375929495
2	6047	1.7	0.018831837847
2	6047	1.7	0.019755354316
2	6047	1.7	0.016005822879
2	6047	1.7	0.015511099175
2	6047	1.7	0.018680518115
2	6047	1.7	0.015807014455
2	6047	1.7	0.014998307345
2	6047	1.7	0.015284704628
2	6047	1.7	0.014083512745
2	6047	1.7	0.014910705281
2	6092	1.71	0.019013514845
2	6092	1.71	0.011522350207
2	6092	1.71	0.016912164277
2	6092	1.71	0.014016876906
2	6092	1.71	0.017192908984
2	6092	1.71	0.022856284386
2	6092	1.71	0.019742017182
2	6092	1.71	0.011707709325
2	6092	1.71	0.019762259253
2	6092	1.71	0.013314459161
2	6137	1.72	0.011204298647
2	6137	1.72	0.017438815856
2	6137	1.72	0.010247904438
2	6137	1.72	0.018611283984
2	6137	1.72	0.012234470128
2	6137	1.72	0.017452771634
2	6137	1.72	0.012141639501
2	6137	1.72	0.010235199819
2	6137	1.72	0.010621706738
2	6137	1.72	0.010114089302
2	6137	1.72	0.017342212595
2	6137	1.72	0.012960604215
2	6137	1.72	0.019251277177
2	6137	1.72	0.016563977778
2	6137	1.72	0.013039828586
2	6137	1.72	0.010980432128
2	6137	1.72	0.013277680454
2	6170	1.73	0.014869156086
2	6170	1.73	0.014591883666
2	6170	1.73	0.017149149255
2	6170	1.73	0.015608963088
2	6170	1.73	0.012371982921
2	6170	1.73	0.012071159754
2	6170	1.73	0.017053820345
2	6170	1.73	0.016080523664
2	6170	1.73	0.019545839245
2	6170	1.73	0.014462526361
2	6170	1.73	0.010081424959
2	6170	1.73	0.019169390959
2	6170	1.73	0.01324695769
2	6170	1.73	0.011951633876
2	6170	1.73	0.014527546838
2	6170	1.73	0.01181672748
2	6170	1.73	0.010650054459
2	6201	1.74	0.015657942427
2	6201	1.74	0.019216877038
2	6201	1.74	0.018838038797
2	6201	1.74	0.018473130992
2	6201	1.74	0.017511308515
2	6201	1.74	0.017635594293
2	6201	1.74	0.01523223046
2	6201	1.74	0.01367474946
2	6201	1.74	0.011550783751
2	6242	1.75	0.016896216542
2	6242	1.75	0.013257512318
2	6242	1.75	0.019755476293
2	6242	1.75	0.016747145486
2	6242	1.75	0.01482427101
2	6242	1.75	0.02078173727
2	6267	1.76	0.02313961525
2	6267	1.76	0.018901481016
2	6267	1.76	0.010626989246
2	6267	1.76	0.01939902137
2	6267	1.76	0.013486200586
2	6267	1.76	0.023506407989
2	6267	1.76	0.021306039322
2	6267	1.76	0.019666239571
2	6267	1.76	0.01062311448
2	6267	1.76	0.012784063062
2	6267	1.76	0.014011370628
2	6267	1.76	0.010412221913
2	6308	1.77	0.029720484592
2	6308	1.77	0.026995604268
2	6308	1.77	0.018941965976
2	6308	1.77	0.019984026371
2	6308	1.77	0.010427188469
2	6308	1.77	0.030807711216
2	6308	1.77	0.02823809595
2	6308	1.77	0.019904180186
2	6308	1.77	0.040583396436
2	6308	1.77	0.039848029317
2	6308	1.77	0.029771813263
2	6308	1.77	0.023279994774
2	6308	1.77	0.028041023308
2	6308	1.77	0.012293823574
2	6308	1.77	0.013952281145
2	6308	1.77	0.01083107351
2	6341	1.78	0.019886380603
2	6341	1.78	0.019370801316
2	6341	1.78	0.017686869398
2	6341	1.78	0.011057850102
2	6341	1.78	0.015052510845
2	6341	1.78	0.017433261008
2	6341	1.78	0.014457655197
2	6341	1.78	0.01950845467
2	6341	1.78	0.017168876621
2	6370	1.79	0.027824245921
2	6370	1.79	0.025640548958
2	6370	1.79	0.025061712494
2	6370	1.79	0.019962009453
2	6370	1.79	0.016218391291
2	6370	1.79	0.02127690906
2	6370	1.79	0.020810938772
2	6370	1.79	0.01976883206
2	6370	1.79	0.016716389754
2	6397	1.8	0.027785238589
2	6397	1.8	0.024227989637
2	6397	1.8	0.019650071361
2	6397	1.8	0.012563179222
2	6397	1.8	0.012328489177
2	6397	1.8	0.030691121209
2	6397	1.8	0.022712397383
2	6397	1.8	0.013853079991
2	6397	1.8	0.021071471815
2	6397	1.8	0.012116797068
2	6397	1.8	0.029006774197
2	6397	1.8	0.017749749791
2	6397	1.8	0.017045922956
2	6397	1.8	0.022883317484
2	6397	1.8	0.021608032842
2	6397	1.8	0.016590717784
2	6397	1.8	0.010079851107
2	6436	1.81	0.017174403624
2	6436	1.81	0.016641609922
2	6436	1.81	0.015260505958
2	6436	1.81	0.012791651226
2	6436	1.81	0.017599163239
2	6436	1.81	0.012765830568
2	6436	1.81	0.014277103023
2	6436	1.81	0.01578156274
2	6463	1.82	0.017117177935
2	6463	1.82	0.014347638317
2	6463	1.82	0.015529318284
2	6463	1.82	0.018513520679
2	6463	1.82	0.01583886625
2	6463	1.82	0.014973484431
2	6463	1.82	0.014873641742
2	6463	1.82	0.019808345623
2	6463	1.82	0.014356371525
2	6463	1.82	0.013824910531
2	6463	1.82	0.012383970799
2	6494	1.83	0.019801715293
2	6494	1.83	0.020096022893
2	6494	1.83	0.028403394822
2	6494	1.83	0.020738407342
2	6494	1.83	0.011309500011
2	6494	1.83	0.011060439992
2	6494	1.83	0.017638637443
2	6494	1.83	0.018629354883
2	6494	1.83	0.01606194353
2	6494	1.83	0.011715393352
2	6494	1.83	0.014821576942
2	6535	1.84	0.010716432203
2	6535	1.84	0.010556083761
2	6535	1.84	0.015086276044
2	6535	1.84	0.014519880133
2	6535	1.84	0.016482651318
2	6535	1.84	0.017785195193
2	6535	1.84	0.016076735364
2	6566	1.85	0.011703902346
2	6566	1.85	0.014318054048
2	6566	1.85	0.017736013885
2	6566	1.85	0.016999568115
2	6566	1.85	0.018949087419
2	6566	1.85	0.017309767105
2	6566	1.85	0.017186449365
2	6566	1.85	0.014518731298
2	6566	1.85	0.012321729373
2	6566	1.85	0.011943799458
2	6566	1.85	0.022358071427
2	6566	1.85	0.021454046276
2	6566	1.85	0.016212048185
2	6566	1.85	0.010516670735
2	6595	1.86	0.016815483705
2	6595	1.86	0.015915486613
2	6595	1.86	0.013963161006
2	6595	1.86	0.016167999246
2	6595	1.86	0.014114420305
2	6595	1.86	0.03179058667
2	6595	1.86	0.022624906298
2	6595	1.86	0.01527870979
2	6595	1.86	0.027335059912
2	6595	1.86	0.017864730657
2	6634	1.87	0.019666737222
2	6634	1.87	0.012309413501
2	6634	1.87	0.017922771091
2	6634	1.87	0.014257077803
2	6634	1.87	0.017217799253
2	6634	1.87	0.011992007849
2	6634	1.87	0.038497868637
2	6634	1.87	0.026707295937
2	6634	1.87	0.018320063622
2	6634	1.87	0.021699274872
2	6634	1.87	0.011531066049
2	6634	1.87	0.026907133351
2	6634	1.87	0.017921859669
2	6667	1.88	0.018431103375
2	6667	1.88	0.012067058977
2	6667	1.88	0.015891873625
2	6667	1.88	0.014095994331
2	6667	1.88	0.019063240927
2	6667	1.88	0.014647522147
2	6667	1.88	0.013517385939
2	6667	1.88	0.012601257719
2	6667	1.88	0.01663321732
2	6667	1.88	0.016381523788
2	6667	1.88	0.013734197461
2	6667	1.88	0.010630087344
2	6667	1.88	0.01916523638
2	6667	1.88	0.014858557791
2	6696	1.89	0.01602088516
2	6696	1.89	0.019408319323
2	6696	1.89	0.0178779808
2	6696	1.89	0.019138267965
2	6696	1.89	0.014291999376
2	6696	1.89	0.011949411136
2	6696	1.89	0.019488638742
2	6696	1.89	0.016049133434
2	6696	1.89	0.013341666708
2	6696	1.89	0.012124167313
2	6696	1.89	0.010960460424
2	6721	1.9	0.012209449331
2	6721	1.9	0.016593625371
2	6721	1.9	0.013904126805
2	6721	1.9	0.010707639902
2	6721	1.9	0.010394155697
2	6721	1.9	0.014619007187
2	6721	1.9	0.01820117908
2	6750	1.91	0.010015941422
2	6750	1.91	0.010048635004
2	6750	1.91	0.017413965772
2	6750	1.91	0.013273113047
2	6750	1.91	0.011849650363
2	6750	1.91	0.01887345983
2	6750	1.91	0.020790056239
2	6750	1.91	0.025402962754
2	6785	1.92	0.019333867565
2	6785	1.92	0.017127215808
2	6785	1.92	0.0150683877
2	6785	1.92	0.013913364914
2	6785	1.92	0.013720859926
2	6785	1.92	0.010810154137
2	6785	1.92	0.018460620581
2	6785	1.92	0.016749618514
2	6808	1.93	0.017746385446
2	6808	1.93	0.017223084882
2	6808	1.93	0.013604807762
2	6808	1.93	0.019168789461
2	6808	1.93	0.036711254088
2	6808	1.93	0.010443555774
2	6808	1.93	0.014990908683
2	6808	1.93	0.013031811308
2	6849	1.94	0.037445835722
2	6849	1.94	0.024581297791
2	6849	1.94	0.023418186543
2	6849	1.94	0.023081433348
2	6849	1.94	0.022407727901
2	6849	1.94	0.020502039329
2	6849	1.94	0.014971188146
2	6849	1.94	0.010772523907
2	6849	1.94	0.019138673471
2	6849	1.94	0.012731120429
2	6849	1.94	0.013977727934
2	6888	1.95	0.018116769034
2	6888	1.95	0.014772371956
2	6888	1.95	0.012471846903
2	6888	1.95	0.015969405893
2	6888	1.95	0.010217139122
2	6888	1.95	0.01497079992
2	6888	1.95	0.018413069527
2	6888	1.95	0.015855167991
2	6888	1.95	0.01244255429
2	6888	1.95	0.010329993265
2	6888	1.95	0.018166199149
2	6888	1.95	0.029055664634
2	6888	1.95	0.019323880479
2	6888	1.95	0.012266968912
2	6888	1.95	0.017044631207
2	6888	1.95	0.012524011644
2	6913	1.96	0.015846441434
2	6913	1.96	0.013262699657
2	6913	1.96	0.011077427274
2	6913	1.96	0.017221437704
2	6913	1.96	0.015677410079
2	6913	1.96	0.015783697932
2	6913	1.96	0.01483072155
2	6913	1.96	0.014337579621
2	6913	1.96	0.015839124347
2	6913	1.96	0.019565319077
2	6913	1.96	0.018960695609
2	6913	1.96	0.017044515638
2	6944	1.97	0.017663233775
2	6944	1.97	0.01187851283
2	6944	1.97	0.025133733919
2	6944	1.97	0.023766369596
2	6944	1.97	0.012743853416
2	6944	1.97	0.017231688686
2	6944	1.97	0.011937077843
2	6944	1.97	0.010331945949
2	6944	1.97	0.012650461177
2	6981	1.98	0.0130401453
2	6981	1.98	0.015019329012
2	6981	1.98	0.019684753125
2	6981	1.98	0.019630660633
2	6981	1.98	0.015128266815
2	6981	1.98	0.019931091953
2	6981	1.98	0.011999986227
2	6981	1.98	0.016190921274
2	6981	1.98	0.011791657004
2	6981	1.98	0.011702618838
2	7022	1.99	0.014479202947
2	7022	1.99	0.019502684398
2	7022	1.99	0.015602699626
2	7022	1.99	0.010666981067
2	7022	1.99	0.019682332455
2	7022	1.99	0.018696303006
2	7022	1.99	0.018391736905
2	7022	1.99	0.014682008459
2	7022	1.99	0.010374870171
2	7022	1.99	0.010156620954
2	7022	1.99	0.011764451385
2	7022	1.99	0.011532306066
2	7051	2	0.013692225461
2	7051	2	0.011017302511
2	7051	2	0.018414787132
2	7051	2	0.012239603994
2	7051	2	0.010585620343
2	7051	2	0.013266681879
2	7051	2	0.013587296405
2	7051	2	0.018816303974
2	7051	2	0.013081893164
2	7051	2	0.019159351677
2	7051	2	0.012437230429
2	7051	2	0.010991973092
2	7051	2	0.0196635079
2	7051	2	0.019368228447
2	7051	2	0.021206272691
2	7051	2	0.019701979356
2	7078	2.01	0.014358159371
2	7078	2.01	0.011543461798
2	7078	2.01	0.011017711454
2	7078	2.01	0.017540384417
2	7078	2.01	0.01594342932
2	7078	2.01	0.016098632265
2	7078	2.01	0.013859892521
2	7078	2.01	0.011606345656
2	7078	2.01	0.01721799707
2	7111	2.02	0.014512666724
2	7111	2.02	0.015696638334
2	7111	2.02	0.019008747545
2	7138	2.03	0.016732953636
2	7138	2.03	0.015301972481
2	7138	2.03	0.011934289966
2	7138	2.03	0.027218535513
2	7138	2.03	0.025661616022
2	7187	2.04	0.017429182172
2	7187	2.04	0.01242407145
2	7187	2.04	0.03497951973
2	7187	2.04	0.023976549475
2	7187	2.04	0.02289789074
2	7187	2.04	0.020536308573
2	7187	2.04	0.026461717142
2	7187	2.04	0.021168704714
2	7187	2.04	0.022316324884
2	7187	2.04	0.01406219821
2	7187	2.04	0.010897088832
2	7187	2.04	0.010819727409
2	7187	2.04	0.038010469343
2	7187	2.04	0.035452538244
2	7187	2.04	0.026277552282
2	7187	2.04	0.0260615559
2	7187	2.04	0.017921582041
2	7187	2.04	0.015488009052
2	7187	2.04	0.019868825445
2	7232	2.05	0.017309733669
2	7232	2.05	0.015577992949
2	7232	2.05	0.018403244981
2	7232	2.05	0.017888931062
2	7232	2.05	0.012466228471
2	7232	2.05	0.019403386112
2	7232	2.05	0.011876645873
2	7232	2.05	0.018341685575
2	7232	2.05	0.016053160272
2	7232	2.05	0.016386764646
2	7232	2.05	0.015046853865
2	7232	2.05	0.012809858884
2	7232	2.05	0.019559775492
2	7232	2.05	0.018735446965
2	7267	2.06	0.017534467134
2	7267	2.06	0.02939987331
2	7267	2.06	0.013809871081
2	7267	2.06	0.017525856368
2	7306	2.07	0.019905978337
2	7306	2.07	0.011452774293
2	7306	2.07	0.020053342542
2	7306	2.07	0.019394661846
2	7306	2.07	0.014243743671
2	7306	2.07	0.013992182159
2	7306	2.07	0.013157384563
2	7306	2.07	0.011020656797
2	7306	2.07	0.038906378975
2	7306	2.07	0.030689054665
2	7306	2.07	0.027562536859
2	7306	2.07	0.023789148482
2	7306	2.07	0.02307659216
2	7306	2.07	0.027130338846
2	7306	2.07	0.021415163427
2	7306	2.07	0.02062295882
2	7306	2.07	0.010442138061
2	7306	2.07	0.016707797951
2	7306	2.07	0.016419403869
2	7306	2.07	0.015665216006
2	7306	2.07	0.032482429196
2	7306	2.07	0.026366291878
2	7306	2.07	0.024526439175
2	7335	2.08	0.015448734991
2	7335	2.08	0.01152376539
2	7335	2.08	0.010099855861
2	7335	2.08	0.010764183022
2	7335	2.08	0.016353441561
2	7335	2.08	0.014807404031
2	7335	2.08	0.019429445403
2	7354	2.09	0.01869882845
2	7354	2.09	0.014503055171
2	7354	2.09	0.01166393959
2	7354	2.09	0.051068621176
2	7354	2.09	0.044751766778
2	7354	2.09	0.02509197411
2	7354	2.09	0.042658962434
2	7383	2.1	0.048528738736
2	7383	2.1	0.031068930633
2	7383	2.1	0.030344913103
2	7383	2.1	0.029350365919
2	7383	2.1	0.021438921579
2	7383	2.1	0.020449041771
2	7383	2.1	0.053189333591
2	7383	2.1	0.05230331889
2	7383	2.1	0.03022073849
2	7383	2.1	0.051724359902
2	7408	2.11	0.019082476505
2	7408	2.11	0.01626981656
2	7408	2.11	0.011715265546
2	7408	2.11	0.018009051283
2	7408	2.11	0.010119568425
2	7408	2.11	0.016126867913
2	7408	2.11	0.048551271203
2	7408	2.11	0.041725095633
2	7408	2.11	0.037450476531
2	7408	2.11	0.02997779986
2	7408	2.11	0.028824169623
2	7408	2.11	0.025238749926
2	7408	2.11	0.033933790549
2	7408	2.11	0.018875920548
2	7408	2.11	0.043074452032
2	7408	2.11	0.035928971718
2	7408	2.11	0.026652172754
2	7408	2.11	0.018228755588
2	7408	2.11	0.012905188266
2	7461	2.12	0.018264280694
2	7461	2.12	0.012965642074
2	7461	2.12	0.010877868173
2	7461	2.12	0.013687886705
2	7461	2.12	0.01962209383
2	7461	2.12	0.013013006286
2	7461	2.12	0.011492935496
2	7508	2.13	0.016034045121
2	7508	2.13	0.014822690141
2	7508	2.13	0.017202464351
2	7508	2.13	0.016490381147
2	7508	2.13	0.013097884997
2	7508	2.13	0.018962973053
2	7508	2.13	0.014985457045
2	7508	2.13	0.019833667855
2	7508	2.13	0.019480797321
2	7508	2.13	0.019913159446
2	7508	2.13	0.01914527749
2	7508	2.13	0.017707241197
2	7508	2.13	0.014612786431
2	7508	2.13	0.016244848355
2	7508	2.13	0.015151330298
2	7508	2.13	0.014545431817
2	7508	2.13	0.013910611329
2	7508	2.13	0.013630626166
2	7508	2.13	0.01264601653
2	7508	2.13	0.016708730799
2	7508	2.13	0.011705204827
2	7547	2.14	0.01256918161
2	7547	2.14	0.010519272426
2	7547	2.14	0.017893518565
2	7547	2.14	0.013959334462
2	7547	2.14	0.013017262387
2	7547	2.14	0.014305093691
2	7547	2.14	0.011734634005
2	7547	2.14	0.010928823513
2	7547	2.14	0.012330732289
2	7547	2.14	0.019627391965
2	7547	2.14	0.010125420636
2	7547	2.14	0.016290484214
2	7547	2.14	0.013056134638
2	7547	2.14	0.010765003728
2	7547	2.14	0.010729510285
2	7547	2.14	0.019401450474
2	7547	2.14	0.014940751361
2	7547	2.14	0.014585350561
2	7582	2.15	0.011527706354
2	7582	2.15	0.016716845494
2	7582	2.15	0.019375639948
2	7582	2.15	0.010318199875
2	7582	2.15	0.01607618258
2	7582	2.15	0.015958718167
2	7582	2.15	0.012216831654
2	7582	2.15	0.016242239705
2	7582	2.15	0.01855969877
2	7582	2.15	0.012204805473
2	7582	2.15	0.01148356974
2	7582	2.15	0.014499679463
2	7582	2.15	0.012340140075
2	7582	2.15	0.014557739051
2	7619	2.16	0.018470058636
2	7619	2.16	0.013590251216
2	7619	2.16	0.010538614685
2	7619	2.16	0.012172216896
2	7619	2.16	0.010672753458
2	7619	2.16	0.01296821542
2	7619	2.16	0.016332735593
2	7619	2.16	0.014020489357
2	7619	2.16	0.01046066178
2	7619	2.16	0.019612959177
2	7619	2.16	0.010445784967
2	7619	2.16	0.012672473623
2	7646	2.17	0.019031048388
2	7646	2.17	0.013106993177
2	7646	2.17	0.019089976277
2	7646	2.17	0.013660131143
2	7646	2.17	0.011378287305
2	7646	2.17	0.0140234385
2	7646	2.17	0.014611505133
2	7646	2.17	0.012590404572
2	7646	2.17	0.012263774993
2	7646	2.17	0.010476324588
2	7646	2.17	0.017426974169
2	7646	2.17	0.014909602284
2	7685	2.18	0.012501834373
2	7685	2.18	0.010352181958
2	7685	2.18	0.012788027247
2	7685	2.18	0.013985018635
2	7685	2.18	0.018569236412
2	7685	2.18	0.015513649795
2	7685	2.18	0.015379242132
2	7718	2.19	0.011316645539
2	7718	2.19	0.032951761801
2	7718	2.19	0.016601690617
2	7718	2.19	0.019550371116
2	7718	2.19	0.013803893674
2	7718	2.19	0.010727988866
2	7718	2.19	0.018922337896
2	7718	2.19	0.012469924026
2	7718	2.19	0.01131666082
2	7718	2.19	0.01923262277
2	7718	2.19	0.010022385864
2	7718	2.19	0.023456677652
2	7753	2.2	0.011708227924
2	7753	2.2	0.0105054549
2	7753	2.2	0.017314996258
2	7753	2.2	0.015194426005
2	7753	2.2	0.022480846369
2	7753	2.2	0.015090928283
2	7753	2.2	0.014524747122
2	7753	2.2	0.016109532645
2	7753	2.2	0.011718141064
2	7753	2.2	0.010291090458
2	7753	2.2	0.01763777295
2	7784	2.21	0.010722691625
2	7784	2.21	0.010544421968
2	7784	2.21	0.020564601419
2	7784	2.21	0.010540961462
2	7784	2.21	0.017976890737
2	7784	2.21	0.014089636882
2	7784	2.21	0.038705508027
2	7825	2.22	0.012718358745
2	7825	2.22	0.011708757071
2	7825	2.22	0.019335496278
2	7825	2.22	0.011267217924
2	7825	2.22	0.020712963956
2	7825	2.22	0.010581516097
2	7825	2.22	0.048394373739
2	7825	2.22	0.042802621314
2	7825	2.22	0.025291689755
2	7825	2.22	0.016986357009
2	7825	2.22	0.024956686785
2	7872	2.23	0.017719786268
2	7872	2.23	0.01020868508
2	7872	2.23	0.010052496178
2	7872	2.23	0.031912661407
2	7872	2.23	0.031230986215
2	7872	2.23	0.036728925672
2	7872	2.23	0.030673822111
2	7903	2.24	0.028610889025
2	7903	2.24	0.024677254905
2	7903	2.24	0.022147268123
2	7903	2.24	0.024863114752
2	7903	2.24	0.011077325951
2	7903	2.24	0.016930269115
2	7903	2.24	0.016656199274
2	7903	2.24	0.013320655195
2	7903	2.24	0.015773327818
2	7903	2.24	0.01984045169
2	7903	2.24	0.014920129317
2	7903	2.24	0.011976123232
2	7948	2.25	0.030927477184
2	7948	2.25	0.025832880216
2	7948	2.25	0.011590310665
2	7948	2.25	0.029736861155
2	7948	2.25	0.027194438429
2	7948	2.25	0.025118796138
2	7948	2.25	0.03983121782
2	7989	2.26	0.019416455557
2	7989	2.26	0.017973712284
2	7989	2.26	0.015758264979
2	7989	2.26	0.019854793404
2	7989	2.26	0.016589296708
2	7989	2.26	0.016812030301
2	7989	2.26	0.034469119641
2	7989	2.26	0.026175007591
2	7989	2.26	0.02529345009
2	7989	2.26	0.022942444161
2	7989	2.26	0.020893193441
2	7989	2.26	0.019511481487
2	7989	2.26	0.026039394964
2	7989	2.26	0.024167802378
2	7989	2.26	0.018480464252
2	7989	2.26	0.059517215874
2	7989	2.26	0.056667031828
2	7989	2.26	0.053495092646
2	7989	2.26	0.052870756442
2	7989	2.26	0.049641994647
2	8028	2.27	0.055903055661
2	8028	2.27	0.053454849578
2	8028	2.27	0.048522142017
2	8028	2.27	0.038685007851
2	8028	2.27	0.0442229338
2	8028	2.27	0.043611514529
2	8028	2.27	0.041542812415
2	8028	2.27	0.032894405524
2	8028	2.27	0.023675731296
2	8028	2.27	0.018959776237
2	8028	2.27	0.017662986273
2	8028	2.27	0.01832697174
2	8028	2.27	0.018292730503
2	8028	2.27	0.01480372003
2	8028	2.27	0.014533609802
2	8028	2.27	0.016070849864
2	8067	2.28	0.033682579008
2	8067	2.28	0.02104365132
2	8067	2.28	0.03106775961
2	8067	2.28	0.020454340371
2	8067	2.28	0.019129494579
2	8067	2.28	0.017222738682
2	8067	2.28	0.012063543414
2	8067	2.28	0.02993148437
2	8067	2.28	0.015955661423
2	8067	2.28	0.014191031242
2	8067	2.28	0.068421388074
2	8067	2.28	0.062564663278
2	8067	2.28	0.061956780095
2	8067	2.28	0.057947756842
2	8067	2.28	0.038355478747
2	8067	2.28	0.038093334538
2	8067	2.28	0.03760118386
2	8067	2.28	0.035308320906
2	8067	2.28	0.025949012286
2	8067	2.28	0.024243778596
2	8067	2.28	0.023798473559
2	8067	2.28	0.016257578474
2	8094	2.29	0.023689690887
2	8094	2.29	0.011577287839
2	8094	2.29	0.027359744676
2	8094	2.29	0.025127389542
2	8094	2.29	0.028577479868
2	8094	2.29	0.014618935467
2	8094	2.29	0.013319924185
2	8094	2.29	0.035591323232
2	8094	2.29	0.032463483094
2	8094	2.29	0.016459476851
2	8094	2.29	0.015590388393
2	8094	2.29	0.011384546692
2	8094	2.29	0.019584029522
2	8094	2.29	0.057154564672
2	8094	2.29	0.048923923943
2	8094	2.29	0.045412379418
2	8094	2.29	0.028296161272
2	8094	2.29	0.027929041089
2	8094	2.29	0.020535701319
2	8094	2.29	0.016329301263
2	8131	2.3	0.030087418192
2	8131	2.3	0.029166457963
2	8131	2.3	0.028463169061
2	8131	2.3	0.025419930751
2	8131	2.3	0.017891105561
2	8131	2.3	0.017523438464
2	8131	2.3	0.013570108593
2	8131	2.3	0.014029408926
2	8131	2.3	0.022899997702
2	8131	2.3	0.019204089498
2	8131	2.3	0.011495818838
2	8131	2.3	0.011975664895
2	8131	2.3	0.022228594628
2	8131	2.3	0.020297621799
2	8166	2.31	0.013902410284
2	8166	2.31	0.016218168804
2	8166	2.31	0.013456236826
2	8166	2.31	0.010688110295
2	8166	2.31	0.018540381173
2	8166	2.31	0.017373026897
2	8166	2.31	0.011413635682
2	8166	2.31	0.01419383195
2	8166	2.31	0.019904836278
2	8166	2.31	0.01572412684
2	8207	2.32	0.018728256335
2	8207	2.32	0.018117266561
2	8207	2.32	0.016258667791
2	8207	2.32	0.012856834032
2	8207	2.32	0.018109556284
2	8207	2.32	0.016247864723
2	8207	2.32	0.012564646329
2	8207	2.32	0.01312818333
2	8207	2.32	0.012940464133
2	8207	2.32	0.011616163971
2	8207	2.32	0.010440139944
2	8207	2.32	0.018207229549
2	8207	2.32	0.024180349946
2	8207	2.32	0.034394339872
2	8207	2.32	0.029479036623
2	8207	2.32	0.022841982443
2	8238	2.33	0.018930872641
2	8238	2.33	0.018316594877
2	8238	2.33	0.011162097955
2	8238	2.33	0.012246400437
2	8238	2.33	0.015339079782
2	8238	2.33	0.010951346089
2	8238	2.33	0.019670937452
2	8238	2.33	0.018448998643
2	8238	2.33	0.015489540422
2	8238	2.33	0.010628191966
2	8238	2.33	0.017624689282
2	8238	2.33	0.01561201537
2	8238	2.33	0.012334847101
2	8238	2.33	0.012207544358
2	8279	2.34	0.017714282266
2	8279	2.34	0.016018388701
2	8279	2.34	0.014140506933
2	8279	2.34	0.010547303722
2	8279	2.34	0.010590106009
2	8279	2.34	0.015831216893
2	8279	2.34	0.026232050625
2	8279	2.34	0.018846367301
2	8279	2.34	0.018505084135
2	8279	2.34	0.014623235358
2	8320	2.35	0.018755112414
2	8320	2.35	0.015929505062
2	8320	2.35	0.01273533096
2	8320	2.35	0.019562968309
2	8320	2.35	0.012374381833
2	8320	2.35	0.018837122824
2	8320	2.35	0.019093474028
2	8320	2.35	0.012838673364
2	8320	2.35	0.01283074942
2	8320	2.35	0.019632704091
2	8320	2.35	0.015086522374
2	8320	2.35	0.025231278328
2	8320	2.35	0.014322433461
2	8320	2.35	0.013820630096
2	8320	2.35	0.018967613708
2	8353	2.36	0.020851759008
2	8353	2.36	0.017281887731
2	8353	2.36	0.013614172009
2	8353	2.36	0.010633848242
2	8353	2.36	0.016033534694
2	8353	2.36	0.011558863614
2	8353	2.36	0.013022462845
2	8353	2.36	0.018906774488
2	8353	2.36	0.012218277729
2	8353	2.36	0.010746988399
2	8353	2.36	0.017793254638
2	8353	2.36	0.011643618881
2	8392	2.37	0.018821955399
2	8392	2.37	0.017030091216
2	8392	2.37	0.012342481104
2	8392	2.37	0.016544331079
2	8392	2.37	0.016472857889
2	8392	2.37	0.015598263163
2	8392	2.37	0.018003519924
2	8392	2.37	0.017978606576
2	8392	2.37	0.018066200757
2	8392	2.37	0.026465882629
2	8392	2.37	0.020812328352
2	8392	2.37	0.020646329207
2	8392	2.37	0.020132242977
2	8392	2.37	0.014522116906
2	8392	2.37	0.012800425323
2	8441	2.38	0.019054537523
2	8441	2.38	0.016269687663
2	8441	2.38	0.016773239395
2	8441	2.38	0.016699279
2	8441	2.38	0.012246820954
2	8441	2.38	0.015167785225
2	8441	2.38	0.014015340913
2	8441	2.38	0.017928969623
2	8488	2.39	0.021417117884
2	8488	2.39	0.018885084201
2	8488	2.39	0.014294664652
2	8488	2.39	0.019378993585
2	8488	2.39	0.017886152355
2	8488	2.39	0.018148471102
2	8488	2.39	0.017246854873
2	8488	2.39	0.011703596989
2	8488	2.39	0.010450044639
2	8488	2.39	0.025954242318
2	8488	2.39	0.022938197255
2	8488	2.39	0.019829505052
2	8488	2.39	0.014903123002
2	8488	2.39	0.014414196869
2	8488	2.39	0.012193342243
2	8488	2.39	0.015583705117
2	8488	2.39	0.012923441834
2	8488	2.39	0.016606042058
2	8488	2.39	0.013986465643
2	8488	2.39	0.011088562705
2	8488	2.39	0.028941521962
2	8488	2.39	0.025382253719
2	8488	2.39	0.023329501692
2	8519	2.4	0.019050368634
2	8519	2.4	0.018636050618
2	8519	2.4	0.015420142649
2	8519	2.4	0.010878332632
2	8519	2.4	0.017026067708
2	8519	2.4	0.01303320714
2	8519	2.4	0.012168905151
2	8519	2.4	0.01566815586
2	8519	2.4	0.013055563588
2	8519	2.4	0.014500025005
2	8519	2.4	0.015904332382
2	8519	2.4	0.011427677831
2	8568	2.41	0.026974258594
2	8568	2.41	0.025871383056
2	8568	2.41	0.023974478139
2	8568	2.41	0.019204094238
2	8568	2.41	0.015821624538
2	8568	2.41	0.039991344632
2	8568	2.41	0.030127035221
2	8568	2.41	0.018767252569
2	8568	2.41	0.010715043568
2	8568	2.41	0.014456186435
2	8597	2.42	0.032018597861
2	8597	2.42	0.015840849835
2	8597	2.42	0.010230778922
2	8597	2.42	0.031939023908
2	8597	2.42	0.028594652604
2	8597	2.42	0.022887117692
2	8597	2.42	0.013598035367
2	8597	2.42	0.011440759744
2	8597	2.42	0.010090903031
2	8597	2.42	0.019940968007
2	8597	2.42	0.011502533868
2	8597	2.42	0.011494523077
2	8597	2.42	0.031049429901
2	8630	2.43	0.025633917294
2	8630	2.43	0.022842845925
2	8630	2.43	0.021270914889
2	8630	2.43	0.016619033896
2	8630	2.43	0.014927248291
2	8630	2.43	0.010034978155
2	8630	2.43	0.029105458036
2	8630	2.43	0.012125695292
2	8630	2.43	0.036940823247
2	8630	2.43	0.023662175206
2	8630	2.43	0.023237104541
2	8630	2.43	0.019328007179
2	8630	2.43	0.029797715077
2	8630	2.43	0.016481605537
2	8630	2.43	0.013150653289
2	8630	2.43	0.033220738638
2	8630	2.43	0.0323473474
2	8630	2.43	0.025963358439
2	8630	2.43	0.021652057521
2	8630	2.43	0.011656127746
2	8669	2.44	0.012884288354
2	8669	2.44	0.013890275377
2	8669	2.44	0.018990210819
2	8669	2.44	0.039059703967
2	8669	2.44	0.033119033061
2	8669	2.44	0.018591807987
2	8669	2.44	0.011336604284
2	8669	2.44	0.011016781139
2	8669	2.44	0.021336213413
[...]
2	264359	73.64	0.010044538623006
2	264359	73.64	0.036661554895005
2	264359	73.64	0.035575548726996
2	264380	73.65	0.017444002969995
2	264380	73.65	0.010713557286991
2	264380	73.65	0.019256411738994
2	264380	73.65	0.010694815088996
2	264380	73.65	0.017926535088989
2	264380	73.65	0.014919210071
2	264380	73.65	0.016213901544987
2	264405	73.66	0.039366269938
2	264405	73.66	0.024874924480002
2	264405	73.66	0.024180474486997
2	264405	73.66	0.023016966303004
2	264405	73.66	0.015594715681004
2	264405	73.66	0.012447781392993
2	264405	73.66	0.028683338796995
2	264405	73.66	0.025598351377994
2	264405	73.66	0.023319976395996
2	264405	73.66	0.021765618299
2	264405	73.66	0.015735939707994
2	264405	73.66	0.024358432626997
2	264405	73.66	0.018786538458997
2	264405	73.66	0.029149123096005
2	264405	73.66	0.011929044523995
2	264405	73.66	0.021562773054001
2	264440	73.67	0.012752761010006
2	264440	73.67	0.011250571168006
2	264440	73.67	0.019771573923009
2	264440	73.67	0.01519667045001
2	264440	73.67	0.019306010201007
2	264440	73.67	0.015969572629999
2	264440	73.67	0.010524326380008
2	264479	73.68	0.010035046642997
2	264479	73.68	0.014422188571999
2	264479	73.68	0.012824223863987
2	264479	73.68	0.012196986983994
2	264479	73.68	0.011302147652998
2	264479	73.68	0.012018315457993
2	264479	73.68	0.014905087784001
2	264479	73.68	0.015709357766994
2	264479	73.68	0.019545104273988
2	264479	73.68	0.019414953167995
2	264479	73.68	0.010773107241988
2	264479	73.68	0.010613794802993
2	264522	73.69	0.018116240612002
2	264522	73.69	0.017895961112998
2	264522	73.69	0.017047289793993
2	264522	73.69	0.011783039826
2	264522	73.69	0.014552380755006
2	264522	73.69	0.019918180028
2	264522	73.69	0.013668719295993
2	264522	73.69	0.016465641869999
2	264522	73.69	0.015181340138994
2	264522	73.69	0.015604477180005
2	264522	73.69	0.013682162039999
2	264522	73.69	0.015777903092001
2	264522	73.69	0.012046764630995
2	264522	73.69	0.011617207008001
2	264553	73.7	0.018590368205011
2	264553	73.7	0.017457305066998
2	264553	73.7	0.012950057541005
2	264553	73.7	0.017569575544002
2	264553	73.7	0.011037864645999
2	264553	73.7	0.018632278189997
2	264553	73.7	0.013538915266011
2	264553	73.7	0.017478620955998
2	264553	73.7	0.016400175853008
2	264553	73.7	0.017036945577999
2	264553	73.7	0.014614425136998
2	264553	73.7	0.013006029134999
2	264553	73.7	0.015655532026997
2	264553	73.7	0.014155313664006
2	264553	73.7	0.01349739359901
2	264553	73.7	0.01058773156501
2	264580	73.71	0.017714877857998
2	264580	73.71	0.011196406490001
2	264580	73.71	0.013988492460001
2	264580	73.71	0.016754522578992
2	264580	73.71	0.013661025145993
2	264580	73.71	0.018881092448993
2	264580	73.71	0.016486726563997
2	264580	73.71	0.016666865315997
2	264580	73.71	0.016344685942002
2	264580	73.71	0.016193587394994
2	264629	73.72	0.019003828749007
2	264629	73.72	0.015861328316007
2	264629	73.72	0.013931163449996
2	264629	73.72	0.012272727135993
2	264629	73.72	0.019432074289995
2	264629	73.72	0.013976288619006
2	264629	73.72	0.015652747743999
2	264629	73.72	0.013396105457005
2	264662	73.73	0.017200620356007
2	264662	73.73	0.017898744584002
2	264662	73.73	0.011104504208006
2	264662	73.73	0.010536859021002
2	264662	73.73	0.013044563680012
2	264662	73.73	0.019650443908006
2	264662	73.73	0.018418882671
2	264662	73.73	0.011389333424006
2	264662	73.73	0.019697823638012
2	264662	73.73	0.017818862821002
2	264662	73.73	0.015411756592002
2	264699	73.74	0.019543058037002
2	264699	73.74	0.014288487334994
2	264699	73.74	0.018085708721998
2	264699	73.74	0.016227805927002
2	264699	73.74	0.027543595037002
2	264699	73.74	0.027446729958001
2	264699	73.74	0.020788968962989
2	264699	73.74	0.024496018398992
2	264699	73.74	0.017789002315993
2	264699	73.74	0.016019563038995
2	264699	73.74	0.027130655813991
2	264699	73.74	0.018251437925002
2	264699	73.74	0.028955961763998
2	264699	73.74	0.020503899264
2	264699	73.74	0.015733319552993
2	264699	73.74	0.012669922185992
2	264699	73.74	0.023597849341002
2	264699	73.74	0.011728472740998
2	264730	73.75	0.017775892493006
2	264730	73.75	0.018659686611997
2	264730	73.75	0.016416127059998
2	264730	73.75	0.011868642454004
2	264730	73.75	0.019627578574998
2	264730	73.75	0.016082156620001
2	264730	73.75	0.015105277977995
2	264730	73.75	0.015976810007999
2	264730	73.75	0.019529374319006
2	264730	73.75	0.018895838058
2	264730	73.75	0.012653070938001
2	264730	73.75	0.012389808826995
2	264759	73.76	0.030461563243009
2	264759	73.76	0.024239800248012
2	264759	73.76	0.014854835478005
2	264759	73.76	0.012237584626007
2	264759	73.76	0.010753008912005
2	264759	73.76	0.018221445129001
2	264759	73.76	0.014010782086004
2	264759	73.76	0.017080565279002
2	264759	73.76	0.013838451662011
2	264759	73.76	0.015215372404001
2	264792	73.77	0.013278999929
2	264792	73.77	0.015477455271991
2	264792	73.77	0.012763042267991
2	264792	73.77	0.015865768854994
2	264792	73.77	0.025933698880991
2	264792	73.77	0.017599500749995
2	264792	73.77	0.013956263637994
2	264837	73.78	0.011807028581003
2	264837	73.78	0.027156696207996
2	264837	73.78	0.033081497954996
2	264837	73.78	0.027645882995998
2	264837	73.78	0.010701509976002
2	264837	73.78	0.019886814187004
2	264837	73.78	0.019818204811003
2	264837	73.78	0.019078787653001
2	264837	73.78	0.016715745183006
2	264837	73.78	0.013424267284009
2	264837	73.78	0.019269186819002
2	264837	73.78	0.015351782365997
2	264837	73.78	0.010071493728006
2	264837	73.78	0.023899554323009
2	264882	73.79	0.01620032860599
2	264882	73.79	0.014978611574989
2	264882	73.79	0.013442967954987
2	264882	73.79	0.019070582626995
2	264882	73.79	0.017888513343991
2	264882	73.79	0.014662070876
2	264882	73.79	0.014019310213996
2	264882	73.79	0.011672607607991
2	264882	73.79	0.01087136624399
2	264882	73.79	0.010745051243987
2	264882	73.79	0.013569362116996
2	264882	73.79	0.019236243715994
2	264882	73.79	0.018672042858995
2	264882	73.79	0.016976442260997
2	264882	73.79	0.011565623456988
2	264882	73.79	0.017904608466992
2	264882	73.79	0.020626003810989
2	264917	73.8	0.018666685917992
2	264917	73.8	0.016553034140003
2	264917	73.8	0.012458293893005
2	264917	73.8	0.014787171741006
2	264917	73.8	0.012259620289996
2	264917	73.8	0.016652167117996
2	264917	73.8	0.011645077873993
2	264917	73.8	0.017316321458992
2	264917	73.8	0.015921938093996
2	264917	73.8	0.010916746042994
2	264917	73.8	0.018848398366003
2	264917	73.8	0.016218311652992
2	264917	73.8	0.015470243422996
2	264917	73.8	0.012870164788993
2	264917	73.8	0.011312933186005
2	264917	73.8	0.016238153931994
2	264917	73.8	0.014393873507998
2	264917	73.8	0.029832153648996
2	264956	73.81	0.015553637137998
2	264956	73.81	0.015244721541009
2	264956	73.81	0.012359044383004
2	264956	73.81	0.012765274887002
2	264956	73.81	0.014226306061005
2	264956	73.81	0.013569089918008
2	264956	73.81	0.012250352594009
2	264956	73.81	0.017461612344007
2	264956	73.81	0.012052083528999
2	264956	73.81	0.018210586995011
2	264956	73.81	0.01786588745
2	264956	73.81	0.012885761895006
2	265007	73.82	0.019345314702989
2	265007	73.82	0.015526377320001
2	265007	73.82	0.016889311957001
2	265007	73.82	0.01062494965899
2	265007	73.82	0.010025156131988
2	265007	73.82	0.01981394254399
2	265007	73.82	0.019413131652001
2	265007	73.82	0.016285090842999
2	265007	73.82	0.013666734623996
2	265007	73.82	0.017506701513
2	265007	73.82	0.015960075417993
2	265007	73.82	0.013101519925002
2	265007	73.82	0.01376427068999
2	265007	73.82	0.010593634006
2	265044	73.83	0.019832214717994
2	265044	73.83	0.017564238782001
2	265044	73.83	0.013104573045993
2	265044	73.83	0.017273394466002
2	265044	73.83	0.015100008052997
2	265044	73.83	0.017201280158005
2	265044	73.83	0.013681355073004
2	265044	73.83	0.016625527711994
2	265044	73.83	0.012907957493994
2	265044	73.83	0.016880528597
2	265083	73.84	0.028035649507999
2	265083	73.84	0.023260939907004
2	265083	73.84	0.020275151637009
2	265083	73.84	0.013825740733012
2	265083	73.84	0.028910757610006
2	265083	73.84	0.021559048015007
2	265083	73.84	0.021176712089002
2	265083	73.84	0.020584938988009
2	265083	73.84	0.015243847220006
2	265083	73.84	0.013261867698006
2	265083	73.84	0.020862703500001
2	265083	73.84	0.012089431075012
2	265083	73.84	0.017608405739011
2	265083	73.84	0.026260966864001
2	265083	73.84	0.023540166239002
2	265112	73.85	0.017110633936994
2	265112	73.85	0.018003826209991
2	265112	73.85	0.012715779202992
2	265112	73.85	0.020521562163992
2	265112	73.85	0.028034336269997
2	265112	73.85	0.024672887676999
2	265145	73.86	0.014247538621007
2	265145	73.86	0.012688173430007
2	265145	73.86	0.025394561159004
2	265145	73.86	0.021790884862995
2	265145	73.86	0.010209949132005
2	265145	73.86	0.030106749021002
2	265145	73.86	0.016313253809003
2	265145	73.86	0.010150415832996
2	265145	73.86	0.032485247015003
2	265145	73.86	0.027447003445005
2	265145	73.86	0.016338041774006
2	265145	73.86	0.024478724695996
2	265145	73.86	0.020416793508005
2	265145	73.86	0.026008971793004
2	265145	73.86	0.017294376299006
2	265145	73.86	0.034509409803007
2	265145	73.86	0.033642584825998
2	265145	73.86	0.024120057108007
2	265145	73.86	0.015337622817
2	265188	73.87	0.016582929181013
2	265188	73.87	0.017160531230999
2	265188	73.87	0.016242195220002
2	265188	73.87	0.018803292682009
2	265188	73.87	0.019778156944
2	265188	73.87	0.01797785155
2	265188	73.87	0.016362137150011
2	265188	73.87	0.042972575625001
2	265188	73.87	0.039965836112003
2	265188	73.87	0.034716908077002
2	265188	73.87	0.012743367661002
2	265188	73.87	0.033524399985012
2	265188	73.87	0.018727554295012
2	265223	73.88	0.017762136470992
2	265223	73.88	0.013572709293001
2	265223	73.88	0.016417873211992
2	265223	73.88	0.016154146056991
2	265223	73.88	0.015382783129994
2	265223	73.88	0.018385250123998
2	265223	73.88	0.016853405576001
2	265223	73.88	0.016124234732999
2	265223	73.88	0.017991898765999
2	265223	73.88	0.014909779300993
2	265223	73.88	0.040956100217002
2	265223	73.88	0.035558571387995
2	265223	73.88	0.027321043412996
2	265223	73.88	0.022509196038996
2	265223	73.88	0.018960380674002
2	265223	73.88	0.017983760156994
2	265223	73.88	0.014047800743
2	265223	73.88	0.013252710503991
2	265223	73.88	0.016460359424997
2	265223	73.88	0.013271153988995
2	265268	73.89	0.016248307899005
2	265268	73.89	0.014718220626008
2	265268	73.89	0.014742695736999
2	265268	73.89	0.013676989521002
2	265268	73.89	0.013273450569997
2	265268	73.89	0.019940175488998
2	265268	73.89	0.015307348768005
2	265268	73.89	0.015138666417002
2	265268	73.89	0.012932455883004
2	265268	73.89	0.014429697974009
2	265268	73.89	0.016775780361002
2	265319	73.9	0.013073038885992
2	265319	73.9	0.012125577413997
2	265319	73.9	0.010714411163988
2	265319	73.9	0.016084647129986
2	265319	73.9	0.01553646701899
2	265319	73.9	0.012046062479996
2	265319	73.9	0.016905998788999
2	265319	73.9	0.016766275203992
2	265319	73.9	0.015925661915986
2	265319	73.9	0.019184389466986
2	265319	73.9	0.015832110805988
2	265319	73.9	0.013389293564998
2	265319	73.9	0.010388563042994
2	265362	73.91	0.016049058025999
2	265362	73.91	0.013058629258992
2	265362	73.91	0.011570204262995
2	265362	73.91	0.010234646629002
2	265362	73.91	0.015984535011
2	265362	73.91	0.013736520511003
2	265362	73.91	0.013919891531998
2	265397	73.92	0.028779719642998
2	265397	73.92	0.027730669787999
2	265397	73.92	0.027312712449003
2	265397	73.92	0.026657981260001
2	265397	73.92	0.020941201473008
2	265397	73.92	0.017894902139005
2	265397	73.92	0.028495296084003
2	265397	73.92	0.027092658274
2	265397	73.92	0.01816822501101
2	265397	73.92	0.028690651882002
2	265397	73.92	0.025194691654008
2	265397	73.92	0.018019343896
2	265397	73.92	0.015207163382001
2	265397	73.92	0.012125593226003
2	265397	73.92	0.012009602144005
2	265397	73.92	0.012364250245
2	265397	73.92	0.022452774461996
2	265430	73.93	0.019399776309996
2	265430	73.93	0.017231132318997
2	265430	73.93	0.011865339089994
2	265430	73.93	0.013894767135
2	265430	73.93	0.028925933954994
2	265430	73.93	0.027974050951997
2	265430	73.93	0.018286190724993
2	265430	73.93	0.018235030657991
2	265430	73.93	0.051316959066
2	265430	73.93	0.046912831731987
2	265430	73.93	0.045409703320999
2	265430	73.93	0.044656540961
2	265430	73.93	0.043788012132993
2	265430	73.93	0.03955535496199
2	265430	73.93	0.029217668475994
2	265430	73.93	0.026449879135001
2	265430	73.93	0.02382270599
2	265430	73.93	0.021338961559991
2	265430	73.93	0.018725930750989
2	265430	73.93	0.018352942492001
2	265430	73.93	0.021679429233998
2	265430	73.93	0.014347868627993
2	265430	73.93	0.011623521630995
2	265430	73.93	0.030559510083989
2	265430	73.93	0.012515718490988
2	265430	73.93	0.031129458464989
2	265430	73.93	0.023066482541992
2	265430	73.93	0.020738164701001
2	265430	73.93	0.013966885624995
2	265459	73.94	0.014932776595003
2	265459	73.94	0.014068953977002
2	265459	73.94	0.015788834565996
2	265459	73.94	0.015982756984002
2	265459	73.94	0.014171577460999
2	265459	73.94	0.017603631886004
2	265459	73.94	0.016824782650005
2	265459	73.94	0.016288569653
2	265459	73.94	0.010298506143997
2	265459	73.94	0.016541954437997
2	265494	73.95	0.01356970242901
2	265494	73.95	0.019619437667998
2	265494	73.95	0.014146376782008
2	265494	73.95	0.013370530997008
2	265494	73.95	0.011423942893998
2	265494	73.95	0.017459114326002
2	265525	73.96	0.019363109983999
2	265525	73.96	0.010660085173001
2	265525	73.96	0.016645990076
2	265525	73.96	0.014613770090989
2	265525	73.96	0.019684584008999
2	265525	73.96	0.010279221530993
2	265525	73.96	0.018865398224989
2	265525	73.96	0.013356673151989
2	265525	73.96	0.035866965697991
2	265525	73.96	0.026606407603992
2	265525	73.96	0.02612690644699
2	265525	73.96	0.022931297691997
2	265525	73.96	0.018364376793002
2	265556	73.97	0.017734008326002
2	265556	73.97	0.017101656964996
2	265556	73.97	0.014902813399004
2	265556	73.97	0.017994616525996
2	265556	73.97	0.015084202276
2	265556	73.97	0.014454141995003
2	265556	73.97	0.012503649809005
2	265556	73.97	0.015556720020996
2	265556	73.97	0.019172606165995
2	265556	73.97	0.023298561136997
2	265556	73.97	0.023070377617003
2	265605	73.98	0.033841297679999
2	265605	73.98	0.020971204418004
2	265605	73.98	0.016355567638001
2	265605	73.98	0.01488218046201
2	265605	73.98	0.013101319490005
2	265605	73.98	0.018768227850003
2	265605	73.98	0.011020728837011
2	265605	73.98	0.010213085663011
2	265605	73.98	0.010095513213003
2	265605	73.98	0.011026856689
2	265605	73.98	0.019873194355
2	265605	73.98	0.015307052745001
2	265642	73.99	0.016726805639991
2	265642	73.99	0.014127729520993
2	265642	73.99	0.010984641178993
2	265642	73.99	0.013888289294002
2	265642	73.99	0.019071727821
2	265642	73.99	0.018784330103003
2	265642	73.99	0.018443242426997
2	265642	73.99	0.017902322019992
2	265642	73.99	0.013858250005995
2	265642	73.99	0.014414447959993
2	265642	73.99	0.011156249023003
2	265642	73.99	0.017210959057991
2	265642	73.99	0.012179319851001
2	265642	73.99	0.013331098783993
2	265642	73.99	0.015732799462995
2	265642	73.99	0.01261681537099
2	265642	73.99	0.010525040670998
2	265673	74	0.014798623040008
2	265673	74	0.013098224784002
2	265673	74	0.017472807211007
2	265673	74	0.010142603100007
2	265673	74	0.016221287072995
2	265673	74	0.010454157158009
2	265673	74	0.018551554514005
2	265673	74	0.017826067132006
2	265673	74	0.027950346550995
2	265673	74	0.020337494116006
2	265673	74	0.014482786249999
2	265673	74	0.012823718217007
2	265726	74.01	0.014890909402013
2	265726	74.01	0.014834347767007
2	265726	74.01	0.011339378821006
2	265726	74.01	0.015873259334001
2	265726	74.01	0.015990896972014
2	265726	74.01	0.017007801299002
2	265726	74.01	0.019750933909009
2	265726	74.01	0.010411321566011
2	265726	74.01	0.010397936654002
2	265726	74.01	0.022951217824001
2	265726	74.01	0.021960743894013
2	265726	74.01	0.020817308043007
2	265769	74.02	0.019732733669002
2	265769	74.02	0.019505988218
2	265769	74.02	0.014689589423
2	265769	74.02	0.012418440152004
2	265769	74.02	0.016726737195995
2	265769	74.02	0.016338892612993
2	265769	74.02	0.012146053138991
2	265769	74.02	0.014813477267992
2	265769	74.02	0.014741819961998
2	265769	74.02	0.011619519961997
2	265769	74.02	0.019940060902996
2	265769	74.02	0.018663235841998
2	265769	74.02	0.012284047601
2	265769	74.02	0.013169793795996
2	265769	74.02	0.013137344149001
2	265769	74.02	0.013023215880992
2	265769	74.02	0.026761361274993
2	265769	74.02	0.011978009063
2	265769	74.02	0.010950255982991
2	265769	74.02	0.017643959786
2	265769	74.02	0.013397973107004
2	265769	74.02	0.010576604140994
2	265800	74.03	0.019095671304996
2	265800	74.03	0.015065009842004
2	265800	74.03	0.012841524449996
2	265800	74.03	0.011869525099002
2	265800	74.03	0.011170632667998
2	265800	74.03	0.019174459227003
2	265800	74.03	0.012976673067001
2	265800	74.03	0.016959891973997
2	265800	74.03	0.01696885026
2	265800	74.03	0.014768633757001
2	265800	74.03	0.013924555507003
2	265800	74.03	0.013205187962001
2	265800	74.03	0.019778036516996
2	265800	74.03	0.018377173806002
2	265800	74.03	0.018014632166
2	265800	74.03	0.017152729737006
2	265833	74.04	0.014280087717992
2	265833	74.04	0.01318366553599
2	265833	74.04	0.010351319105993
2	265833	74.04	0.019676481895999
2	265833	74.04	0.017049370368994
2	265833	74.04	0.014029425576993
2	265833	74.04	0.017785072831998
2	265833	74.04	0.010598623825999
2	265833	74.04	0.017163317603988
2	265833	74.04	0.014435986053996
2	265874	74.05	0.015192369543001
2	265874	74.05	0.016999871416004
2	265874	74.05	0.010402598154002
2	265874	74.05	0.018790254237999
2	265874	74.05	0.017649852310001
2	265874	74.05	0.012679106508003
2	265874	74.05	0.010608221406002
2	265874	74.05	0.018691007825993
2	265874	74.05	0.017685644956003
2	265874	74.05	0.010544247268996
2	265905	74.06	0.01206552632101
2	265905	74.06	0.011784330454006
2	265905	74.06	0.019394368033005
2	265905	74.06	0.018127565637002
2	265905	74.06	0.015937658977009
2	265905	74.06	0.012111381509001
2	265905	74.06	0.013993185494002
2	265905	74.06	0.015616259449004
2	265905	74.06	0.011468437155003
2	265905	74.06	0.029738633733004
2	265905	74.06	0.019994782322001
2	265905	74.06	0.018023989085009
2	265905	74.06	0.01852738616401
2	265905	74.06	0.016580440234009
2	265905	74.06	0.013350709095008
2	265905	74.06	0.012335183339999
2	265950	74.07	0.019405580790988
2	265950	74.07	0.010697689241994
2	265950	74.07	0.012933643635989
2	265950	74.07	0.013907322868988
2	265950	74.07	0.019250550229998
2	265950	74.07	0.016921268079997
2	265950	74.07	0.013848184334989
2	265950	74.07	0.010099138097999
2	265950	74.07	0.013007972113996
2	265991	74.08	0.018815108089996
2	265991	74.08	0.014765524360001
2	265991	74.08	0.016586034799005
2	265991	74.08	0.013332171315
2	265991	74.08	0.011116082919003
2	265991	74.08	0.010604711406003
2	265991	74.08	0.016051737460998
2	265991	74.08	0.012583269700997
2	266038	74.09	0.028786877119998
2	266038	74.09	0.025727188806002
2	266038	74.09	0.021175517485005
2	266038	74.09	0.019332677428011
2	266038	74.09	0.018637627350998
2	266038	74.09	0.028327267255008
2	266038	74.09	0.026282274958007
2	266038	74.09	0.018854615525001
2	266038	74.09	0.020935509028007
2	266038	74.09	0.015071399359002
2	266038	74.09	0.017450771785008
2	266038	74.09	0.020597138489009
2	266063	74.1	0.020185308028999
2	266063	74.1	0.018241095311993
2	266063	74.1	0.015712830577002
2	266063	74.1	0.011400181889996
2	266063	74.1	0.022432494919997
2	266063	74.1	0.020645218832001
2	266063	74.1	0.01823512061199
2	266063	74.1	0.011945214476995
2	266063	74.1	0.043368286865999
2	266063	74.1	0.034127541003002
2	266063	74.1	0.031962462704001
2	266063	74.1	0.028336191416003
2	266063	74.1	0.020064312044994
2	266063	74.1	0.022322128146996
2	266063	74.1	0.020006086386999
2	266063	74.1	0.018534112116996
2	266063	74.1	0.013910594133989
2	266063	74.1	0.024244855131002
2	266063	74.1	0.011601529418996
2	266063	74.1	0.017108342499995
2	266063	74.1	0.010392577045991
2	266063	74.1	0.028813478828994
2	266124	74.11	0.024523692997008
2	266124	74.11	0.021666218584002
2	266124	74.11	0.012379552563004
2	266124	74.11	0.015579720649995
2	266124	74.11	0.016824413489005
2	266124	74.11	0.012739479062006
2	266124	74.11	0.010084025875003
2	266124	74.11	0.027151957125994
2	266124	74.11	0.029225094913002

