version 2
run General-1-20191219-17:01:51-7652
attr configname General
attr datetime 20191219-17:01:51
attr experiment General
attr inifile omnetpp.ini
attr iterationvars ""
attr iterationvarsf ""
attr measurement ""
attr network CellularNetwork
attr processid 7652
attr repetition 1
attr replication #1
attr resultdir results
attr runnumber 1
attr seedset 1
param **.nUsers 10
param **.antenna.timeslot 0.01s
param **.user[*].lambda 0.008s

vector 0 CellularNetwork.antenna throughput:vector ETV
attr source throughput
vector 1 CellularNetwork.antenna NumServedUser:vector ETV
attr source NumServedUser
vector 2 CellularNetwork.antenna tptUser-0:vector ETV
vector 3 CellularNetwork.antenna tptUser-1:vector ETV
vector 4 CellularNetwork.antenna tptUser-2:vector ETV
vector 5 CellularNetwork.antenna tptUser-3:vector ETV
vector 6 CellularNetwork.antenna tptUser-4:vector ETV
vector 7 CellularNetwork.antenna tptUser-5:vector ETV
vector 8 CellularNetwork.antenna tptUser-6:vector ETV
vector 9 CellularNetwork.antenna tptUser-7:vector ETV
vector 10 CellularNetwork.antenna tptUser-8:vector ETV
vector 11 CellularNetwork.antenna tptUser-9:vector ETV
vector 12 CellularNetwork.antenna responseTime:vector ETV
attr source responseTime
0	40	0.01	0
0	65	0.02	672
0	112	0.03	336
0	145	0.04	542
0	180	0.05	303
0	213	0.06	367
0	246	0.07	428
0	289	0.08	868
0	332	0.09	697
0	359	0.1	695
0	388	0.11	243
0	427	0.12	412
0	482	0.13	556
0	529	0.14	511
0	572	0.15	546
0	607	0.16	940
0	640	0.17	464
0	681	0.18	282
0	706	0.19	300
0	739	0.2	588
0	780	0.21	578
0	819	0.22	224
0	848	0.23	620
0	871	0.24	502
0	902	0.25	310
0	939	0.26	626
0	974	0.27	541
0	1017	0.28	411
0	1052	0.29	360
0	1103	0.3	654
0	1138	0.31	563
0	1183	0.32	705
0	1232	0.33	440
0	1275	0.34	388
0	1318	0.35	586
0	1355	0.36	852
0	1394	0.37	692
0	1427	0.38	734
0	1468	0.39	407
0	1497	0.4	397
0	1538	0.41	520
0	1575	0.42	602
0	1612	0.43	583
0	1657	0.44	295
0	1698	0.45	669
0	1735	0.46	662
0	1772	0.47	396
0	1807	0.48	318
0	1838	0.49	315
0	1869	0.5	505
0	1910	0.51	578
0	1947	0.52	216
0	1982	0.53	333
0	2021	0.54	499
0	2060	0.55	505
0	2097	0.56	805
0	2134	0.57	305
0	2163	0.58	349
0	2188	0.59	386
0	2219	0.6	658
0	2270	0.61	397
0	2321	0.62	592
0	2352	0.63	558
0	2389	0.64	842
0	2432	0.65	358
0	2467	0.66	298
0	2490	0.67	566
0	2527	0.68	310
0	2564	0.69	293
0	2599	0.7	1047
0	2630	0.71	434
0	2661	0.72	396
0	2686	0.73	544
0	2727	0.74	224
0	2754	0.75	371
0	2783	0.76	517
0	2818	0.77	425
0	2851	0.78	253
0	2896	0.79	349
0	2933	0.8	543
0	2972	0.81	481
0	3019	0.82	793
0	3054	0.83	363
0	3075	0.84	149
0	3108	0.85	431
0	3157	0.86	499
0	3200	0.87	865
0	3225	0.88	353
0	3252	0.89	585
0	3285	0.9	346
0	3328	0.91	85
0	3365	0.92	802
0	3404	0.93	596
0	3435	0.94	481
0	3470	0.95	137
0	3501	0.96	936
0	3530	0.97	332
0	3573	0.98	368
0	3608	0.99	718
0	3649	1	294
0	3690	1.01	644
0	3733	1.02	453
0	3776	1.03	683
0	3801	1.04	549
0	3844	1.05	352
0	3889	1.06	560
0	3930	1.07	126
0	3977	1.08	320
0	4022	1.09	354
0	4061	1.1	715
0	4094	1.11	239
0	4133	1.12	524
0	4162	1.13	588
0	4191	1.14	806
0	4220	1.15	418
0	4261	1.16	167
0	4306	1.17	805
0	4333	1.18	367
0	4368	1.19	573
0	4403	1.2	526
0	4442	1.21	395
0	4491	1.22	630
0	4542	1.23	464
0	4569	1.24	437
0	4608	1.25	465
0	4635	1.26	395
0	4684	1.27	637
0	4721	1.28	581
0	4752	1.29	342
0	4793	1.3	625
0	4830	1.31	645
0	4877	1.32	324
0	4908	1.33	469
0	4945	1.34	464
0	4970	1.35	294
0	5015	1.36	319
0	5066	1.37	327
0	5101	1.38	275
0	5142	1.39	691
0	5175	1.4	100
0	5208	1.41	568
0	5257	1.42	1070
0	5292	1.43	793
0	5331	1.44	371
0	5358	1.45	636
0	5395	1.46	224
0	5418	1.47	543
0	5449	1.48	414
0	5486	1.49	423
0	5517	1.5	430
0	5550	1.51	497
0	5579	1.52	546
0	5616	1.53	272
0	5649	1.54	545
0	5688	1.55	182
0	5723	1.56	424
0	5762	1.57	405
0	5791	1.58	336
0	5822	1.59	576
0	5861	1.6	418
0	5892	1.61	381
0	5927	1.62	383
0	5972	1.63	418
0	6013	1.64	654
0	6050	1.65	648
0	6081	1.66	396
0	6118	1.67	242
0	6159	1.68	236
0	6188	1.69	656
0	6223	1.7	376
0	6266	1.71	479
0	6313	1.72	440
0	6368	1.73	595
0	6397	1.74	355
0	6426	1.75	494
0	6451	1.76	682
0	6490	1.77	548
0	6533	1.78	446
0	6568	1.79	621
0	6595	1.8	680
0	6632	1.81	431
0	6663	1.82	292
0	6692	1.83	486
0	6721	1.84	328
0	6742	1.85	385
0	6769	1.86	171
0	6806	1.87	266
0	6841	1.88	343
0	6888	1.89	465
0	6923	1.9	408
0	6962	1.91	299
0	7005	1.92	937
0	7054	1.93	511
0	7103	1.94	1000
0	7140	1.95	425
0	7193	1.96	774
0	7234	1.97	755
0	7287	1.98	573
0	7326	1.99	501
0	7363	2	368
0	7398	2.01	625
0	7427	2.02	570
0	7464	2.03	399
0	7505	2.04	303
0	7536	2.05	926
0	7575	2.06	816
0	7608	2.07	590
0	7635	2.08	110
0	7662	2.09	342
0	7693	2.1	475
0	7726	2.11	134
0	7765	2.12	510
0	7810	2.13	226
0	7837	2.14	573
0	7880	2.15	591
0	7929	2.16	476
0	7968	2.17	277
0	8007	2.18	637
0	8036	2.19	502
0	8065	2.2	991
0	8092	2.21	309
0	8117	2.22	221
0	8150	2.23	332
0	8181	2.24	296
0	8220	2.25	264
0	8251	2.26	580
0	8292	2.27	412
0	8329	2.28	615
0	8374	2.29	460
0	8417	2.3	672
0	8462	2.31	611
0	8495	2.32	622
0	8536	2.33	363
0	8565	2.34	472
0	8606	2.35	626
0	8643	2.36	558
0	8672	2.37	414
0	8703	2.38	232
0	8730	2.39	400
0	8767	2.4	156
0	8794	2.41	687
0	8821	2.42	253
0	8852	2.43	114
0	8891	2.44	293
0	8918	2.45	439
0	8959	2.46	202
0	8996	2.47	339
0	9035	2.48	847
0	9070	2.49	633
0	9103	2.5	552
0	9146	2.51	331
0	9181	2.52	224
0	9218	2.53	414
0	9255	2.54	633
0	9276	2.55	218
0	9307	2.56	127
0	9346	2.57	208
0	9395	2.58	300
0	9420	2.59	888
0	9455	2.6	622
0	9498	2.61	754
0	9553	2.62	132
0	9592	2.63	570
0	9631	2.64	999
0	9660	2.65	543
0	9687	2.66	512
0	9730	2.67	203
0	9763	2.68	297
0	9802	2.69	355
0	9833	2.7	94
0	9882	2.71	290
0	9923	2.72	1077
0	9956	2.73	810
0	9995	2.74	679
0	10022	2.75	829
0	10055	2.76	440
0	10096	2.77	326
0	10135	2.78	568
0	10180	2.79	479
0	10213	2.8	679
0	10256	2.81	391
0	10295	2.82	368
0	10340	2.83	763
0	10365	2.84	383
0	10398	2.85	346
0	10433	2.86	640
0	10466	2.87	503
0	10509	2.88	326
0	10546	2.89	627
0	10575	2.9	520
0	10624	2.91	346
0	10657	2.92	385
0	10692	2.93	675
0	10727	2.94	291
0	10774	2.95	274
0	10827	2.96	915
0	10868	2.97	75
0	10897	2.98	223
0	10930	2.99	538
0	10965	3	596
0	10990	3.01	274
0	11027	3.02	98
0	11058	3.03	589
0	11093	3.04	304
0	11128	3.05	564
0	11175	3.06	575
0	11214	3.07	710
0	11253	3.08	123
0	11286	3.09	415
0	11333	3.1	404
0	11356	3.11	224
0	11407	3.12	777
0	11436	3.13	550
0	11477	3.14	933
0	11522	3.15	854
0	11553	3.16	849
0	11592	3.17	937
0	11619	3.18	483
0	11658	3.19	467
0	11699	3.2	495
0	11726	3.21	547
0	11759	3.22	368
0	11794	3.23	256
0	11829	3.24	480
0	11860	3.25	553
0	11895	3.26	298
0	11942	3.27	466
0	11977	3.28	826
0	12022	3.29	396
0	12061	3.3	497
0	12102	3.31	462
0	12133	3.32	256
0	12172	3.33	578
0	12221	3.34	693
0	12254	3.35	680
0	12291	3.36	195
0	12320	3.37	615
0	12359	3.38	411
0	12388	3.39	685
0	12419	3.4	386
0	12468	3.41	678
0	12509	3.42	388
0	12536	3.43	627
0	12585	3.44	414
0	12604	3.45	600
0	12635	3.46	236
0	12670	3.47	234
0	12695	3.48	420
0	12734	3.49	338
0	12779	3.5	642
0	12808	3.51	561
0	12845	3.52	316
0	12880	3.53	575
0	12925	3.54	586
0	12962	3.55	652
0	13005	3.56	243
0	13040	3.57	810
0	13073	3.58	465
0	13110	3.59	293
0	13139	3.6	401
0	13176	3.61	419
0	13211	3.62	464
0	13258	3.63	265
0	13287	3.64	715
0	13312	3.65	566
0	13341	3.66	243
0	13380	3.67	293
0	13419	3.68	307
0	13458	3.69	211
0	13493	3.7	447
0	13530	3.71	680
0	13549	3.72	844
0	13590	3.73	131
0	13629	3.74	165
0	13670	3.75	928
0	13715	3.76	382
0	13750	3.77	435
0	13793	3.78	435
0	13832	3.79	416
0	13863	3.8	79
0	13904	3.81	970
0	13945	3.82	567
0	13976	3.83	421
0	14005	3.84	205
0	14044	3.85	1295
0	14073	3.86	592
0	14118	3.87	347
0	14157	3.88	683
0	14200	3.89	461
0	14239	3.9	534
0	14274	3.91	470
0	14307	3.92	417
0	14346	3.93	331
0	14373	3.94	755
0	14420	3.95	377
0	14461	3.96	608
0	14496	3.97	401
0	14533	3.98	332
0	14568	3.99	856
0	14609	4	500
0	14646	4.01	334
0	14689	4.02	428
0	14718	4.03	265
0	14747	4.04	456
0	14780	4.05	480
0	14819	4.06	930
0	14874	4.07	418
0	14915	4.08	403
0	14944	4.09	115
0	14989	4.1	406
0	15024	4.11	406
0	15063	4.12	536
0	15092	4.13	948
0	15125	4.14	377
0	15168	4.15	346
0	15207	4.16	736
0	15248	4.17	302
0	15287	4.18	939
0	15340	4.19	720
0	15371	4.2	470
0	15418	4.21	299
0	15463	4.22	505
0	15506	4.23	547
0	15543	4.24	789
0	15586	4.25	474
0	15631	4.26	1133
0	15670	4.27	333
0	15703	4.28	553
0	15740	4.29	418
0	15785	4.3	463
0	15832	4.31	616
0	15873	4.32	873
0	15914	4.33	570
0	15951	4.34	548
0	15988	4.35	507
0	16027	4.36	303
0	16066	4.37	338
0	16095	4.38	407
0	16114	4.39	382
0	16145	4.4	473
0	16182	4.41	579
0	16223	4.42	459
0	16258	4.43	525
0	16285	4.44	461
0	16320	4.45	253
0	16347	4.46	342
0	16376	4.47	382
0	16413	4.48	337
0	16458	4.49	479
0	16503	4.5	366
0	16538	4.51	368
0	16577	4.52	248
0	16614	4.53	623
0	16641	4.54	143
0	16672	4.55	480
0	16715	4.56	98
0	16740	4.57	306
0	16789	4.58	281
0	16830	4.59	614
0	16867	4.6	484
0	16902	4.61	913
0	16933	4.62	805
0	16970	4.63	824
0	16995	4.64	345
0	17034	4.65	335
0	17059	4.66	195
0	17090	4.67	547
0	17123	4.68	533
0	17182	4.69	420
0	17215	4.7	793
0	17248	4.71	541
0	17279	4.72	343
0	17316	4.73	509
0	17357	4.74	338
0	17376	4.75	342
0	17415	4.76	518
0	17454	4.77	460
0	17491	4.78	425
0	17522	4.79	355
0	17555	4.8	551
0	17584	4.81	523
0	17625	4.82	422
0	17660	4.83	120
0	17691	4.84	328
0	17722	4.85	232
0	17763	4.86	270
0	17806	4.87	475
0	17841	4.88	747
0	17876	4.89	684
0	17913	4.9	448
0	17940	4.91	869
0	17963	4.92	673
0	18008	4.93	173
0	18045	4.94	454
0	18072	4.95	570
0	18103	4.96	212
0	18140	4.97	289
0	18173	4.98	297
0	18212	4.99	495
0	18247	5	200
0	18292	5.01	425
0	18331	5.02	587
0	18374	5.03	845
0	18425	5.04	536
0	18478	5.05	613
0	18525	5.06	701
0	18554	5.07	671
0	18609	5.08	558
0	18650	5.09	1262
0	18683	5.1	631
0	18714	5.11	689
0	18749	5.12	479
0	18784	5.13	317
0	18815	5.14	307
0	18850	5.15	340
0	18883	5.16	626
0	18924	5.17	377
0	18947	5.18	662
0	18986	5.19	144
0	19031	5.2	302
0	19064	5.21	195
0	19095	5.22	263
0	19136	5.23	498
0	19183	5.24	540
0	19220	5.25	754
0	19259	5.26	1122
0	19298	5.27	502
0	19335	5.28	550
0	19366	5.29	472
0	19401	5.3	329
0	19438	5.31	255
0	19477	5.32	384
0	19500	5.33	555
0	19551	5.34	342
0	19592	5.35	726
0	19619	5.36	692
0	19654	5.37	188
0	19687	5.38	478
0	19730	5.39	485
0	19755	5.4	219
0	19798	5.41	139
0	19837	5.42	803
0	19884	5.43	706
0	19931	5.44	911
0	19968	5.45	364
0	20001	5.46	647
0	20034	5.47	319
0	20069	5.48	572
0	20104	5.49	456
0	20141	5.5	330
0	20178	5.51	648
0	20217	5.52	338
0	20258	5.53	289
0	20293	5.54	333
0	20322	5.55	413
0	20345	5.56	304
0	20388	5.57	320
0	20427	5.58	559
0	20456	5.59	266
0	20499	5.6	478
0	20534	5.61	135
0	20573	5.62	877
0	20604	5.63	1870
0	20645	5.64	611
0	20682	5.65	406
0	20713	5.66	370
0	20746	5.67	363
0	20771	5.68	257
0	20802	5.69	297
0	20849	5.7	477
0	20896	5.71	809
0	20927	5.72	842
0	20958	5.73	390
0	21001	5.74	228
0	21030	5.75	635
0	21057	5.76	245
0	21090	5.77	300
0	21131	5.78	438
0	21166	5.79	532
0	21209	5.8	190
0	21254	5.81	1024
0	21293	5.82	307
0	21326	5.83	806
0	21353	5.84	395
0	21380	5.85	224
0	21413	5.86	259
0	21444	5.87	356
0	21471	5.88	451
0	21512	5.89	379
0	21549	5.9	324
0	21584	5.91	676
0	21615	5.92	267
0	21638	5.93	193
0	21677	5.94	391
0	21712	5.95	167
0	21751	5.96	366
0	21776	5.97	239
0	21819	5.98	323
0	21844	5.99	1155
0	21875	6	366
0	21912	6.01	573
0	21941	6.02	326
0	21988	6.03	377
0	22023	6.04	638
0	22068	6.05	383
0	22107	6.06	207
0	22142	6.07	1101
0	22173	6.08	519
0	22214	6.09	371
0	22257	6.1	451
0	22294	6.11	746
0	22341	6.12	433
0	22380	6.13	273
0	22413	6.14	241
0	22448	6.15	545
0	22479	6.16	532
0	22526	6.17	512
0	22579	6.18	148
0	22614	6.19	711
0	22647	6.2	456
0	22688	6.21	196
0	22711	6.22	452
0	22744	6.23	564
0	22771	6.24	439
0	22810	6.25	1281
0	22847	6.26	288
0	22882	6.27	464
0	22915	6.28	393
0	22936	6.29	858
0	22969	6.3	315
0	23010	6.31	359
0	23049	6.32	660
0	23080	6.33	166
0	23117	6.34	306
0	23152	6.35	977
0	23201	6.36	422
0	23236	6.37	520
0	23273	6.38	607
0	23320	6.39	545
0	23359	6.4	138
0	23380	6.41	231
0	23413	6.42	335
0	23448	6.43	828
0	23479	6.44	589
0	23510	6.45	300
0	23553	6.46	335
0	23584	6.47	772
0	23615	6.48	394
0	23652	6.49	564
0	23689	6.5	556
0	23730	6.51	453
0	23755	6.52	519
0	23794	6.53	269
0	23829	6.54	579
0	23862	6.55	560
0	23905	6.56	356
0	23950	6.57	601
0	23991	6.58	492
0	24024	6.59	508
0	24063	6.6	425
0	24106	6.61	480
0	24133	6.62	222
0	24164	6.63	242
0	24185	6.64	231
0	24218	6.65	644
0	24255	6.66	336
0	24296	6.67	428
0	24325	6.68	942
0	24378	6.69	250
0	24407	6.7	869
0	24444	6.71	150
0	24479	6.72	641
0	24512	6.73	291
0	24549	6.74	595
0	24604	6.75	384
0	24641	6.76	825
0	24674	6.77	848
0	24701	6.78	674
0	24734	6.79	387
0	24769	6.8	347
0	24806	6.81	455
0	24837	6.82	553
0	24880	6.83	504
0	24909	6.84	171
0	24944	6.85	151
0	24977	6.86	524
0	25008	6.87	404
0	25041	6.88	872
0	25062	6.89	432
0	25091	6.9	385
0	25126	6.91	524
0	25165	6.92	473
0	25208	6.93	373
0	25235	6.94	704
0	25266	6.95	372
0	25311	6.96	365
0	25348	6.97	526
0	25377	6.98	240
0	25404	6.99	626
0	25445	7	243
0	25482	7.01	372
0	25519	7.02	587
0	25558	7.03	409
0	25589	7.04	391
0	25634	7.05	378
0	25679	7.06	352
0	25716	7.07	569
0	25757	7.08	586
0	25790	7.09	778
0	25839	7.1	649
0	25878	7.11	281
0	25911	7.12	482
0	25948	7.13	456
0	25979	7.14	1088
0	26012	7.15	739
0	26039	7.16	473
0	26078	7.17	403
0	26107	7.18	507
0	26142	7.19	378
0	26179	7.2	438
0	26206	7.21	541
0	26253	7.22	253
0	26280	7.23	293
0	26307	7.24	522
0	26352	7.25	348
0	26391	7.26	421
0	26434	7.27	468
0	26475	7.28	593
0	26508	7.29	303
0	26545	7.3	757
0	26576	7.31	764
0	26613	7.32	435
0	26652	7.33	562
0	26697	7.34	184
0	26728	7.35	781
0	26759	7.36	409
0	26800	7.37	477
0	26835	7.38	333
0	26878	7.39	191
0	26913	7.4	810
0	26946	7.41	624
0	26981	7.42	457
0	27010	7.43	391
0	27053	7.44	167
0	27090	7.45	415
0	27123	7.46	1064
0	27150	7.47	366
0	27189	7.48	331
0	27226	7.49	481
0	27267	7.5	366
0	27296	7.51	469
0	27327	7.52	215
0	27356	7.53	491
0	27387	7.54	538
0	27424	7.55	371
0	27479	7.56	74
0	27518	7.57	521
0	27571	7.58	273
0	27618	7.59	1078
0	27653	7.6	670
0	27682	7.61	384
0	27719	7.62	659
0	27756	7.63	525
0	27805	7.64	1043
0	27842	7.65	965
0	27871	7.66	606
0	27910	7.67	265
0	27935	7.68	351
0	27960	7.69	325
0	27987	7.7	304
0	28028	7.71	303
0	28065	7.72	357
0	28104	7.73	238
0	28137	7.74	418
0	28164	7.75	372
0	28209	7.76	149
0	28236	7.77	423
0	28275	7.78	194
0	28302	7.79	373
0	28343	7.8	367
0	28378	7.81	488
0	28407	7.82	525
0	28434	7.83	897
0	28471	7.84	921
0	28510	7.85	406
0	28533	7.86	525
0	28574	7.87	131
0	28615	7.88	473
0	28650	7.89	698
0	28689	7.9	325
0	28720	7.91	712
0	28761	7.92	264
0	28796	7.93	456
0	28835	7.94	264
0	28876	7.95	75
0	28915	7.96	205
0	28950	7.97	567
0	28985	7.98	324
0	29038	7.99	781
0	29085	8	499
0	29126	8.01	485
0	29171	8.02	188
0	29208	8.03	610
0	29243	8.04	811
0	29264	8.05	648
0	29303	8.06	595
0	29344	8.07	661
0	29383	8.08	436
0	29424	8.09	683
0	29467	8.1	659
0	29506	8.11	748
0	29533	8.12	194
0	29568	8.13	366
0	29617	8.14	141
0	29646	8.15	1282
0	29683	8.16	489
0	29722	8.17	351
0	29755	8.18	403
0	29790	8.19	405
0	29833	8.2	813
0	29878	8.21	811
0	29907	8.22	593
0	29954	8.23	878
0	30003	8.24	429
0	30040	8.25	516
0	30081	8.26	877
0	30118	8.27	257
0	30151	8.28	670
0	30178	8.29	549
0	30211	8.3	196
0	30260	8.31	512
0	30291	8.32	488
0	30320	8.33	414
0	30353	8.34	591
0	30388	8.35	341
0	30421	8.36	492
0	30460	8.37	370
0	30499	8.38	678
0	30532	8.39	469
0	30577	8.4	332
0	30620	8.41	824
0	30649	8.42	728
0	30680	8.43	379
0	30711	8.44	250
0	30752	8.45	228
0	30785	8.46	390
0	30810	8.47	730
0	30855	8.48	287
0	30888	8.49	295
0	30917	8.5	671
0	30956	8.51	280
0	30989	8.52	565
0	31030	8.53	418
0	31063	8.54	512
0	31108	8.55	355
0	31143	8.56	640
0	31170	8.57	508
0	31193	8.58	325
0	31220	8.59	138
0	31259	8.6	265
0	31288	8.61	116
0	31333	8.62	306
0	31370	8.63	517
0	31409	8.64	659
0	31440	8.65	310
0	31485	8.66	871
0	31518	8.67	383
0	31571	8.68	925
0	31602	8.69	605
0	31639	8.7	545
0	31676	8.71	328
0	31709	8.72	325
0	31740	8.73	119
0	31775	8.74	432
0	31816	8.75	450
0	31855	8.76	1107
0	31888	8.77	130
0	31923	8.78	945
0	31972	8.79	775
0	32005	8.8	474
0	32034	8.81	406
0	32065	8.82	282
0	32112	8.83	518
0	32167	8.84	478
0	32192	8.85	536
0	32227	8.86	431
0	32272	8.87	324
0	32313	8.88	567
0	32352	8.89	860
0	32397	8.9	793
0	32424	8.91	294
0	32461	8.92	467
0	32492	8.93	260
0	32523	8.94	614
0	32572	8.95	263
0	32605	8.96	573
0	32624	8.97	504
0	32665	8.98	524
0	32706	8.99	720
0	32747	9	340
0	32786	9.01	310
0	32835	9.02	1152
0	32864	9.03	733
0	32891	9.04	414
0	32920	9.05	186
0	32955	9.06	209
0	32990	9.07	577
0	33017	9.08	246
0	33046	9.09	524
0	33093	9.1	505
0	33126	9.11	120
0	33157	9.12	848
0	33206	9.13	315
0	33233	9.14	683
0	33258	9.15	331
0	33287	9.16	445
0	33312	9.17	253
0	33347	9.18	297
0	33378	9.19	539
0	33417	9.2	465
0	33442	9.21	537
0	33477	9.22	219
0	33510	9.23	292
0	33535	9.24	466
0	33566	9.25	309
0	33599	9.26	331
0	33636	9.27	357
0	33675	9.28	655
0	33694	9.29	328
0	33743	9.3	196
0	33776	9.31	620
0	33805	9.32	537
0	33832	9.33	455
0	33863	9.34	246
0	33906	9.35	320
0	33947	9.36	509
0	33988	9.37	467
0	34043	9.38	597
0	34076	9.39	479
0	34113	9.4	1155
0	34150	9.41	422
0	34187	9.42	277
0	34232	9.43	560
0	34265	9.44	580
0	34310	9.45	510
0	34353	9.46	565
0	34390	9.47	591
0	34429	9.48	419
0	34480	9.49	491
0	34509	9.5	554
0	34536	9.51	481
0	34563	9.52	545
0	34588	9.53	697
0	34619	9.54	320
0	34646	9.55	281
0	34679	9.56	396
0	34722	9.57	373
0	34771	9.58	186
0	34814	9.59	619
0	34851	9.6	717
0	34890	9.61	599
0	34921	9.62	604
0	34956	9.63	497
0	34997	9.64	439
0	35032	9.65	593
0	35061	9.66	385
0	35098	9.67	203
0	35151	9.68	396
0	35202	9.69	460
0	35243	9.7	722
0	35286	9.71	322
0	35331	9.72	708
0	35370	9.73	339
0	35405	9.74	678
0	35434	9.75	754
0	35459	9.76	483
0	35492	9.77	600
0	35525	9.78	474
0	35556	9.79	291
0	35583	9.8	465
0	35626	9.81	276
0	35665	9.82	271
0	35694	9.83	801
0	35731	9.84	316
0	35766	9.85	433
0	35807	9.86	482
0	35832	9.87	371
0	35861	9.88	549
0	35896	9.89	400
0	35951	9.9	465
0	35976	9.91	462
0	36019	9.92	452
0	36046	9.93	570
0	36079	9.94	439
0	36108	9.95	528
0	36149	9.96	245
0	36188	9.97	319
0	36225	9.98	401
0	36264	9.99	335
0	36295	10	414
1	40	0.01	0
1	65	0.02	10
1	112	0.03	5
1	145	0.04	7
1	180	0.05	6
1	213	0.06	5
1	246	0.07	6
1	289	0.08	8
1	332	0.09	9
1	359	0.1	9
1	388	0.11	6
1	427	0.12	7
1	482	0.13	7
1	529	0.14	8
1	572	0.15	5
1	607	0.16	6
1	640	0.17	8
1	681	0.18	4
1	706	0.19	7
1	739	0.2	6
1	780	0.21	9
1	819	0.22	6
1	848	0.23	6
1	871	0.24	6
1	902	0.25	5
1	939	0.26	8
1	974	0.27	7
1	1017	0.28	7
1	1052	0.29	5
1	1103	0.3	10
1	1138	0.31	9
1	1183	0.32	7
1	1232	0.33	7
1	1275	0.34	5
1	1318	0.35	6
1	1355	0.36	5
1	1394	0.37	9
1	1427	0.38	8
1	1468	0.39	7
1	1497	0.4	8
1	1538	0.41	7
1	1575	0.42	8
1	1612	0.43	9
1	1657	0.44	7
1	1698	0.45	9
1	1735	0.46	9
1	1772	0.47	6
1	1807	0.48	8
1	1838	0.49	5
1	1869	0.5	7
1	1910	0.51	7
1	1947	0.52	4
1	1982	0.53	5
1	2021	0.54	9
1	2060	0.55	4
1	2097	0.56	7
1	2134	0.57	3
1	2163	0.58	7
1	2188	0.59	5
1	2219	0.6	8
1	2270	0.61	7
1	2321	0.62	7
1	2352	0.63	7
1	2389	0.64	7
1	2432	0.65	5
1	2467	0.66	5
1	2490	0.67	5
1	2527	0.68	6
1	2564	0.69	5
1	2599	0.7	9
1	2630	0.71	4
1	2661	0.72	7
1	2686	0.73	6
1	2727	0.74	5
1	2754	0.75	7
1	2783	0.76	6
1	2818	0.77	5
1	2851	0.78	6
1	2896	0.79	5
1	2933	0.8	6
1	2972	0.81	4
1	3019	0.82	7
1	3054	0.83	7
1	3075	0.84	5
1	3108	0.85	6
1	3157	0.86	8
1	3200	0.87	9
1	3225	0.88	8
1	3252	0.89	6
1	3285	0.9	4
1	3328	0.91	2
1	3365	0.92	8
1	3404	0.93	7
1	3435	0.94	6
1	3470	0.95	1
1	3501	0.96	10
1	3530	0.97	7
1	3573	0.98	5
1	3608	0.99	8
1	3649	1	6
1	3690	1.01	9
1	3733	1.02	7
1	3776	1.03	9
1	3801	1.04	8
1	3844	1.05	5
1	3889	1.06	7
1	3930	1.07	3
1	3977	1.08	5
1	4022	1.09	2
1	4061	1.1	9
1	4094	1.11	4
1	4133	1.12	4
1	4162	1.13	5
1	4191	1.14	8
1	4220	1.15	5
1	4261	1.16	5
1	4306	1.17	9
1	4333	1.18	6
1	4368	1.19	6
1	4403	1.2	9
1	4442	1.21	7
1	4491	1.22	8
1	4542	1.23	8
1	4569	1.24	6
1	4608	1.25	6
1	4635	1.26	5
1	4684	1.27	6
1	4721	1.28	9
1	4752	1.29	5
1	4793	1.3	8
1	4830	1.31	5
1	4877	1.32	7
1	4908	1.33	7
1	4945	1.34	7
1	4970	1.35	6
1	5015	1.36	7
1	5066	1.37	5
1	5101	1.38	3
1	5142	1.39	5
1	5175	1.4	2
1	5208	1.41	7
1	5257	1.42	10
1	5292	1.43	9
1	5331	1.44	6
1	5358	1.45	7
1	5395	1.46	3
1	5418	1.47	5
1	5449	1.48	5
1	5486	1.49	6
1	5517	1.5	7
1	5550	1.51	5
1	5579	1.52	7
1	5616	1.53	5
1	5649	1.54	8
1	5688	1.55	8
1	5723	1.56	8
1	5762	1.57	7
1	5791	1.58	5
1	5822	1.59	7
1	5861	1.6	7
1	5892	1.61	8
1	5927	1.62	7
1	5972	1.63	6
1	6013	1.64	7
1	6050	1.65	8
1	6081	1.66	8
1	6118	1.67	4
1	6159	1.68	3
1	6188	1.69	9
1	6223	1.7	7
1	6266	1.71	6
1	6313	1.72	7
1	6368	1.73	7
1	6397	1.74	4
1	6426	1.75	5
1	6451	1.76	7
1	6490	1.77	5
1	6533	1.78	7
1	6568	1.79	4
1	6595	1.8	7
1	6632	1.81	7
1	6663	1.82	7
1	6692	1.83	8
1	6721	1.84	7
1	6742	1.85	8
1	6769	1.86	4
1	6806	1.87	5
1	6841	1.88	6
1	6888	1.89	5
1	6923	1.9	7
1	6962	1.91	6
1	7005	1.92	5
1	7054	1.93	8
1	7103	1.94	7
1	7140	1.95	6
1	7193	1.96	8
1	7234	1.97	7
1	7287	1.98	8
1	7326	1.99	7
1	7363	2	4
1	7398	2.01	7
1	7427	2.02	7
1	7464	2.03	4
1	7505	2.04	6
1	7536	2.05	8
1	7575	2.06	8
1	7608	2.07	5
1	7635	2.08	4
1	7662	2.09	4
1	7693	2.1	8
1	7726	2.11	4
1	7765	2.12	5
1	7810	2.13	5
1	7837	2.14	5
1	7880	2.15	9
1	7929	2.16	6
1	7968	2.17	2
1	8007	2.18	9
1	8036	2.19	6
1	8065	2.2	7
1	8092	2.21	6
1	8117	2.22	4
1	8150	2.23	5
1	8181	2.24	6
1	8220	2.25	5
1	8251	2.26	8
1	8292	2.27	6
1	8329	2.28	7
1	8374	2.29	9
1	8417	2.3	7
1	8462	2.31	9
1	8495	2.32	9
1	8536	2.33	7
1	8565	2.34	6
1	8606	2.35	8
1	8643	2.36	9
1	8672	2.37	7
1	8703	2.38	5
1	8730	2.39	6
1	8767	2.4	5
1	8794	2.41	9
1	8821	2.42	5
1	8852	2.43	3
1	8891	2.44	6
1	8918	2.45	6
1	8959	2.46	6
1	8996	2.47	4
1	9035	2.48	7
1	9070	2.49	9
1	9103	2.5	8
1	9146	2.51	7
1	9181	2.52	9
1	9218	2.53	7
1	9255	2.54	9
1	9276	2.55	4
1	9307	2.56	2
1	9346	2.57	4
1	9395	2.58	4
1	9420	2.59	6
1	9455	2.6	8
1	9498	2.61	6
1	9553	2.62	2
1	9592	2.63	6
1	9631	2.64	9
1	9660	2.65	7
1	9687	2.66	7
1	9730	2.67	4
1	9763	2.68	6
1	9802	2.69	2
1	9833	2.7	1
1	9882	2.71	3
1	9923	2.72	10
1	9956	2.73	7
1	9995	2.74	10
1	10022	2.75	8
1	10055	2.76	6
1	10096	2.77	5
1	10135	2.78	8
1	10180	2.79	8
1	10213	2.8	9
1	10256	2.81	7
1	10295	2.82	7
1	10340	2.83	8
1	10365	2.84	7
1	10398	2.85	5
1	10433	2.86	9
1	10466	2.87	7
1	10509	2.88	9
1	10546	2.89	8
1	10575	2.9	8
1	10624	2.91	6
1	10657	2.92	6
1	10692	2.93	8
1	10727	2.94	8
1	10774	2.95	4
1	10827	2.96	8
1	10868	2.97	1
1	10897	2.98	3
1	10930	2.99	5
1	10965	3	2
1	10990	3.01	3
1	11027	3.02	2
1	11058	3.03	4
1	11093	3.04	4
1	11128	3.05	6
1	11175	3.06	5
1	11214	3.07	5
1	11253	3.08	1
1	11286	3.09	3
1	11333	3.1	2
1	11356	3.11	2
1	11407	3.12	4
1	11436	3.13	5
1	11477	3.14	5
1	11522	3.15	5
1	11553	3.16	5
1	11592	3.17	6
1	11619	3.18	6
1	11658	3.19	6
1	11699	3.2	8
1	11726	3.21	5
1	11759	3.22	7
1	11794	3.23	5
1	11829	3.24	8
1	11860	3.25	7
1	11895	3.26	5
1	11942	3.27	7
1	11977	3.28	7
1	12022	3.29	7
1	12061	3.3	8
1	12102	3.31	7
1	12133	3.32	2
1	12172	3.33	6
1	12221	3.34	8
1	12254	3.35	8
1	12291	3.36	2
1	12320	3.37	4
1	12359	3.38	6
1	12388	3.39	5
1	12419	3.4	6
1	12468	3.41	7
1	12509	3.42	6
1	12536	3.43	8
1	12585	3.44	7
1	12604	3.45	7
1	12635	3.46	5
1	12670	3.47	5
1	12695	3.48	5
1	12734	3.49	5
1	12779	3.5	8
1	12808	3.51	7
1	12845	3.52	6
1	12880	3.53	7
1	12925	3.54	7
1	12962	3.55	10
1	13005	3.56	5
1	13040	3.57	10
1	13073	3.58	9
1	13110	3.59	5
1	13139	3.6	8
1	13176	3.61	8
1	13211	3.62	8
1	13258	3.63	4
1	13287	3.64	6
1	13312	3.65	8
1	13341	3.66	4
1	13380	3.67	5
1	13419	3.68	8
1	13458	3.69	5
1	13493	3.7	8
1	13530	3.71	9
1	13549	3.72	9
1	13590	3.73	3
1	13629	3.74	1
1	13670	3.75	10
1	13715	3.76	6
1	13750	3.77	6
1	13793	3.78	7
1	13832	3.79	6
1	13863	3.8	1
1	13904	3.81	8
1	13945	3.82	6
1	13976	3.83	3
1	14005	3.84	3
1	14044	3.85	7
1	14073	3.86	7
1	14118	3.87	5
1	14157	3.88	8
1	14200	3.89	5
1	14239	3.9	6
1	14274	3.91	9
1	14307	3.92	9
1	14346	3.93	8
1	14373	3.94	7
1	14420	3.95	6
1	14461	3.96	8
1	14496	3.97	7
1	14533	3.98	4
1	14568	3.99	9
1	14609	4	6
1	14646	4.01	5
1	14689	4.02	4
1	14718	4.03	5
1	14747	4.04	4
1	14780	4.05	5
1	14819	4.06	7
1	14874	4.07	8
1	14915	4.08	5
1	14944	4.09	1
1	14989	4.1	4
1	15024	4.11	5
1	15063	4.12	4
1	15092	4.13	7
1	15125	4.14	6
1	15168	4.15	3
1	15207	4.16	4
1	15248	4.17	3
1	15287	4.18	7
1	15340	4.19	4
1	15371	4.2	5
1	15418	4.21	4
1	15463	4.22	7
1	15506	4.23	6
1	15543	4.24	4
1	15586	4.25	6
1	15631	4.26	8
1	15670	4.27	9
1	15703	4.28	5
1	15740	4.29	7
1	15785	4.3	10
1	15832	4.31	6
1	15873	4.32	10
1	15914	4.33	8
1	15951	4.34	9
1	15988	4.35	6
1	16027	4.36	9
1	16066	4.37	6
1	16095	4.38	5
1	16114	4.39	3
1	16145	4.4	6
1	16182	4.41	7
1	16223	4.42	7
1	16258	4.43	7
1	16285	4.44	8
1	16320	4.45	5
1	16347	4.46	6
1	16376	4.47	7
1	16413	4.48	6
1	16458	4.49	8
1	16503	4.5	6
1	16538	4.51	5
1	16577	4.52	4
1	16614	4.53	6
1	16641	4.54	1
1	16672	4.55	3
1	16715	4.56	1
1	16740	4.57	3
1	16789	4.58	2
1	16830	4.59	4
1	16867	4.6	3
1	16902	4.61	4
1	16933	4.62	7
1	16970	4.63	7
1	16995	4.64	5
1	17034	4.65	5
1	17059	4.66	4
1	17090	4.67	8
1	17123	4.68	7
1	17182	4.69	8
1	17215	4.7	8
1	17248	4.71	8
1	17279	4.72	6
1	17316	4.73	7
1	17357	4.74	5
1	17376	4.75	5
1	17415	4.76	3
1	17454	4.77	10
1	17491	4.78	8
1	17522	4.79	5
1	17555	4.8	8
1	17584	4.81	8
1	17625	4.82	5
1	17660	4.83	2
1	17691	4.84	4
1	17722	4.85	3
1	17763	4.86	3
1	17806	4.87	5
1	17841	4.88	5
1	17876	4.89	5
1	17913	4.9	4
1	17940	4.91	6
1	17963	4.92	9
1	18008	4.93	6
1	18045	4.94	5
1	18072	4.95	8
1	18103	4.96	5
1	18140	4.97	5
1	18173	4.98	4
1	18212	4.99	6
1	18247	5	4
1	18292	5.01	7
1	18331	5.02	5
1	18374	5.03	7
1	18425	5.04	5
1	18478	5.05	5
1	18525	5.06	3
1	18554	5.07	5
1	18609	5.08	8
1	18650	5.09	8
1	18683	5.1	6
1	18714	5.11	9
1	18749	5.12	4
1	18784	5.13	7
1	18815	5.14	8
1	18850	5.15	6
1	18883	5.16	10
1	18924	5.17	8
1	18947	5.18	8
1	18986	5.19	5
1	19031	5.2	6
1	19064	5.21	2
1	19095	5.22	4
1	19136	5.23	7
1	19183	5.24	5
1	19220	5.25	7
1	19259	5.26	8
1	19298	5.27	8
1	19335	5.28	7
1	19366	5.29	7
1	19401	5.3	6
1	19438	5.31	5
1	19477	5.32	7
1	19500	5.33	6
1	19551	5.34	6
1	19592	5.35	9
1	19619	5.36	7
1	19654	5.37	5
1	19687	5.38	6
1	19730	5.39	5
1	19755	5.4	3
1	19798	5.41	3
1	19837	5.42	7
1	19884	5.43	9
1	19931	5.44	9
1	19968	5.45	5
1	20001	5.46	7
1	20034	5.47	5
1	20069	5.48	8
1	20104	5.49	8
1	20141	5.5	7
1	20178	5.51	8
1	20217	5.52	5
1	20258	5.53	4
1	20293	5.54	4
1	20322	5.55	5
1	20345	5.56	3
1	20388	5.57	2
1	20427	5.58	5
1	20456	5.59	2
1	20499	5.6	5
1	20534	5.61	2
1	20573	5.62	5
1	20604	5.63	9
1	20645	5.64	8
1	20682	5.65	9
1	20713	5.66	8
1	20746	5.67	6
1	20771	5.68	5
1	20802	5.69	6
1	20849	5.7	9
1	20896	5.71	8
1	20927	5.72	9
1	20958	5.73	6
1	21001	5.74	6
1	21030	5.75	8
1	21057	5.76	7
1	21090	5.77	8
1	21131	5.78	8
1	21166	5.79	8
1	21209	5.8	1
1	21254	5.81	7
1	21293	5.82	6
1	21326	5.83	8
1	21353	5.84	5
1	21380	5.85	6
1	21413	5.86	4
1	21444	5.87	6
1	21471	5.88	7
1	21512	5.89	7
1	21549	5.9	6
1	21584	5.91	8
1	21615	5.92	5
1	21638	5.93	4
1	21677	5.94	9
1	21712	5.95	6
1	21751	5.96	3
1	21776	5.97	3
1	21819	5.98	4
1	21844	5.99	8
1	21875	6	6
1	21912	6.01	7
1	21941	6.02	8
1	21988	6.03	6
1	22023	6.04	8
1	22068	6.05	6
1	22107	6.06	2
1	22142	6.07	9
1	22173	6.08	6
1	22214	6.09	5
1	22257	6.1	8
1	22294	6.11	8
1	22341	6.12	8
1	22380	6.13	5
1	22413	6.14	3
1	22448	6.15	6
1	22479	6.16	6
1	22526	6.17	5
1	22579	6.18	2
1	22614	6.19	7
1	22647	6.2	5
1	22688	6.21	2
1	22711	6.22	4
1	22744	6.23	4
1	22771	6.24	4
1	22810	6.25	7
1	22847	6.26	6
1	22882	6.27	6
1	22915	6.28	2
1	22936	6.29	8
1	22969	6.3	6
1	23010	6.31	7
1	23049	6.32	9
1	23080	6.33	3
1	23117	6.34	3
1	23152	6.35	10
1	23201	6.36	7
1	23236	6.37	7
1	23273	6.38	7
1	23320	6.39	8
1	23359	6.4	3
1	23380	6.41	2
1	23413	6.42	5
1	23448	6.43	5
1	23479	6.44	8
1	23510	6.45	5
1	23553	6.46	6
1	23584	6.47	8
1	23615	6.48	5
1	23652	6.49	8
1	23689	6.5	8
1	23730	6.51	7
1	23755	6.52	7
1	23794	6.53	5
1	23829	6.54	9
1	23862	6.55	7
1	23905	6.56	6
1	23950	6.57	8
1	23991	6.58	10
1	24024	6.59	9
1	24063	6.6	7
1	24106	6.61	8
1	24133	6.62	3
1	24164	6.63	3
1	24185	6.64	3
1	24218	6.65	7
1	24255	6.66	7
1	24296	6.67	6
1	24325	6.68	9
1	24378	6.69	5
1	24407	6.7	10
1	24444	6.71	3
1	24479	6.72	8
1	24512	6.73	9
1	24549	6.74	7
1	24604	6.75	7
1	24641	6.76	7
1	24674	6.77	8
1	24701	6.78	7
1	24734	6.79	5
1	24769	6.8	7
1	24806	6.81	6
1	24837	6.82	9
1	24880	6.83	8
1	24909	6.84	5
1	24944	6.85	3
1	24977	6.86	6
1	25008	6.87	4
1	25041	6.88	4
1	25062	6.89	7
1	25091	6.9	5
1	25126	6.91	7
1	25165	6.92	8
1	25208	6.93	6
1	25235	6.94	9
1	25266	6.95	5
1	25311	6.96	7
1	25348	6.97	7
1	25377	6.98	5
1	25404	6.99	5
1	25445	7	6
1	25482	7.01	6
1	25519	7.02	8
1	25558	7.03	9
1	25589	7.04	6
1	25634	7.05	6
1	25679	7.06	4
1	25716	7.07	4
1	25757	7.08	5
1	25790	7.09	7
1	25839	7.1	9
1	25878	7.11	5
1	25911	7.12	5
1	25948	7.13	2
1	25979	7.14	9
1	26012	7.15	6
1	26039	7.16	7
1	26078	7.17	4
1	26107	7.18	6
1	26142	7.19	8
1	26179	7.2	7
1	26206	7.21	8
1	26253	7.22	6
1	26280	7.23	6
1	26307	7.24	7
1	26352	7.25	5
1	26391	7.26	7
1	26434	7.27	8
1	26475	7.28	8
1	26508	7.29	3
1	26545	7.3	6
1	26576	7.31	7
1	26613	7.32	7
1	26652	7.33	7
1	26697	7.34	7
1	26728	7.35	8
1	26759	7.36	5
1	26800	7.37	8
1	26835	7.38	6
1	26878	7.39	4
1	26913	7.4	9
1	26946	7.41	9
1	26981	7.42	5
1	27010	7.43	4
1	27053	7.44	6
1	27090	7.45	8
1	27123	7.46	8
1	27150	7.47	6
1	27189	7.48	7
1	27226	7.49	7
1	27267	7.5	6
1	27296	7.51	7
1	27327	7.52	4
1	27356	7.53	8
1	27387	7.54	6
1	27424	7.55	6
1	27479	7.56	1
1	27518	7.57	5
1	27571	7.58	3
1	27618	7.59	5
1	27653	7.6	2
1	27682	7.61	7
1	27719	7.62	6
1	27756	7.63	6
1	27805	7.64	8
1	27842	7.65	10
1	27871	7.66	8
1	27910	7.67	7
1	27935	7.68	8
1	27960	7.69	4
1	27987	7.7	4
1	28028	7.71	7
1	28065	7.72	7
1	28104	7.73	6
1	28137	7.74	4
1	28164	7.75	7
1	28209	7.76	2
1	28236	7.77	4
1	28275	7.78	4
1	28302	7.79	3
1	28343	7.8	2
1	28378	7.81	4
1	28407	7.82	5
1	28434	7.83	4
1	28471	7.84	10
1	28510	7.85	8
1	28533	7.86	7
1	28574	7.87	4
1	28615	7.88	7
1	28650	7.89	7
1	28689	7.9	6
1	28720	7.91	8
1	28761	7.92	5
1	28796	7.93	7
1	28835	7.94	7
1	28876	7.95	1
1	28915	7.96	2
1	28950	7.97	6
1	28985	7.98	1
1	29038	7.99	6
1	29085	8	6
1	29126	8.01	2
1	29171	8.02	2
1	29208	8.03	3
1	29243	8.04	4
1	29264	8.05	6
1	29303	8.06	5
1	29344	8.07	7
1	29383	8.08	2
1	29424	8.09	7
1	29467	8.1	7
1	29506	8.11	8
1	29533	8.12	2
1	29568	8.13	3
1	29617	8.14	4
1	29646	8.15	4
1	29683	8.16	5
1	29722	8.17	5
1	29755	8.18	3
1	29790	8.19	6
1	29833	8.2	5
1	29878	8.21	5
1	29907	8.22	4
1	29954	8.23	5
1	30003	8.24	4
1	30040	8.25	5
1	30081	8.26	10
1	30118	8.27	3
1	30151	8.28	6
1	30178	8.29	8
1	30211	8.3	3
1	30260	8.31	7
1	30291	8.32	4
1	30320	8.33	5
1	30353	8.34	7
1	30388	8.35	6
1	30421	8.36	7
1	30460	8.37	5
1	30499	8.38	7
1	30532	8.39	7
1	30577	8.4	8
1	30620	8.41	9
1	30649	8.42	10
1	30680	8.43	5
1	30711	8.44	7
1	30752	8.45	6
1	30785	8.46	5
1	30810	8.47	8
1	30855	8.48	6
1	30888	8.49	8
1	30917	8.5	7
1	30956	8.51	4
1	30989	8.52	9
1	31030	8.53	7
1	31063	8.54	9
1	31108	8.55	8
1	31143	8.56	9
1	31170	8.57	8
1	31193	8.58	6
1	31220	8.59	5
1	31259	8.6	7
1	31288	8.61	3
1	31333	8.62	6
1	31370	8.63	4
1	31409	8.64	7
1	31440	8.65	2
1	31485	8.66	7
1	31518	8.67	7
1	31571	8.68	7
1	31602	8.69	9
1	31639	8.7	6
1	31676	8.71	6
1	31709	8.72	4
1	31740	8.73	2
1	31775	8.74	8
1	31816	8.75	4
1	31855	8.76	10
1	31888	8.77	2
1	31923	8.78	8
1	31972	8.79	7
1	32005	8.8	8
1	32034	8.81	6
1	32065	8.82	3
1	32112	8.83	7
1	32167	8.84	4
1	32192	8.85	7
1	32227	8.86	8
1	32272	8.87	5
1	32313	8.88	8
1	32352	8.89	6
1	32397	8.9	7
1	32424	8.91	5
1	32461	8.92	5
1	32492	8.93	4
1	32523	8.94	6
1	32572	8.95	5
1	32605	8.96	6
1	32624	8.97	6
1	32665	8.98	5
1	32706	8.99	6
1	32747	9	4
1	32786	9.01	6
1	32835	9.02	8
1	32864	9.03	8
1	32891	9.04	7
1	32920	9.05	5
1	32955	9.06	5
1	32990	9.07	6
1	33017	9.08	3
1	33046	9.09	8
1	33093	9.1	7
1	33126	9.11	4
1	33157	9.12	8
1	33206	9.13	7
1	33233	9.14	7
1	33258	9.15	5
1	33287	9.16	6
1	33312	9.17	6
1	33347	9.18	5
1	33378	9.19	10
1	33417	9.2	8
1	33442	9.21	10
1	33477	9.22	5
1	33510	9.23	8
1	33535	9.24	8
1	33566	9.25	5
1	33599	9.26	5
1	33636	9.27	5
1	33675	9.28	7
1	33694	9.29	8
1	33743	9.3	3
1	33776	9.31	8
1	33805	9.32	6
1	33832	9.33	5
1	33863	9.34	6
1	33906	9.35	8
1	33947	9.36	9
1	33988	9.37	9
1	34043	9.38	8
1	34076	9.39	5
1	34113	9.4	9
1	34150	9.41	7
1	34187	9.42	7
1	34232	9.43	8
1	34265	9.44	7
1	34310	9.45	8
1	34353	9.46	7
1	34390	9.47	8
1	34429	9.48	5
1	34480	9.49	6
1	34509	9.5	6
1	34536	9.51	6
1	34563	9.52	7
1	34588	9.53	9
1	34619	9.54	5
1	34646	9.55	6
1	34679	9.56	7
1	34722	9.57	7
1	34771	9.58	4
1	34814	9.59	7
1	34851	9.6	8
1	34890	9.61	7
1	34921	9.62	6
1	34956	9.63	8
1	34997	9.64	6
1	35032	9.65	8
1	35061	9.66	7
1	35098	9.67	5
1	35151	9.68	7
1	35202	9.69	3
1	35243	9.7	5
1	35286	9.71	3
1	35331	9.72	6
1	35370	9.73	4
1	35405	9.74	5
1	35434	9.75	5
1	35459	9.76	5
1	35492	9.77	6
1	35525	9.78	6
1	35556	9.79	6
1	35583	9.8	9
1	35626	9.81	6
1	35665	9.82	3
1	35694	9.83	9
1	35731	9.84	5
1	35766	9.85	5
1	35807	9.86	8
1	35832	9.87	5
1	35861	9.88	6
1	35896	9.89	7
1	35951	9.9	7
1	35976	9.91	7
1	36019	9.92	5
1	36046	9.93	6
1	36079	9.94	6
1	36108	9.95	6
1	36149	9.96	5
1	36188	9.97	5
1	36225	9.98	4
1	36264	9.99	4
1	36295	10	3
2	40	0.01	0
2	65	0.02	11
2	112	0.03	5
2	145	0.04	94
2	180	0.05	16
2	213	0.06	66
2	246	0.07	0
2	289	0.08	71
2	332	0.09	81
2	359	0.1	66
2	388	0.11	3
2	427	0.12	63
2	482	0.13	0
2	529	0.14	39
2	572	0.15	0
2	607	0.16	116
2	640	0.17	75
2	681	0.18	0
2	706	0.19	83
2	739	0.2	0
2	780	0.21	70
2	819	0.22	30
2	848	0.23	85
2	871	0.24	0
2	902	0.25	20
2	939	0.26	0
2	974	0.27	0
2	1017	0.28	75
2	1052	0.29	0
2	1103	0.3	47
2	1138	0.31	0
2	1183	0.32	266
2	1232	0.33	102
2	1275	0.34	0
2	1318	0.35	74
2	1355	0.36	174
2	1394	0.37	0
2	1427	0.38	0
2	1468	0.39	0
2	1497	0.4	56
2	1538	0.41	102
2	1575	0.42	82
2	1612	0.43	71
2	1657	0.44	37
2	1698	0.45	20
2	1735	0.46	35
2	1772	0.47	41
2	1807	0.48	0
2	1838	0.49	71
2	1869	0.5	79
2	1910	0.51	0
2	1947	0.52	14
2	1982	0.53	0
2	2021	0.54	0
2	2060	0.55	0
2	2097	0.56	77
2	2134	0.57	0
2	2163	0.58	0
2	2188	0.59	110
2	2219	0.6	58
2	2270	0.61	0
2	2321	0.62	0
2	2352	0.63	64
2	2389	0.64	44
2	2432	0.65	0
2	2467	0.66	0
2	2490	0.67	0
2	2527	0.68	85
2	2564	0.69	0
2	2599	0.7	126
2	2630	0.71	0
2	2661	0.72	57
2	2686	0.73	0
2	2727	0.74	73
2	2754	0.75	21
2	2783	0.76	18
2	2818	0.77	69
2	2851	0.78	15
2	2896	0.79	40
2	2933	0.8	0
2	2972	0.81	29
2	3019	0.82	0
2	3054	0.83	59
2	3075	0.84	0
2	3108	0.85	0
2	3157	0.86	44
2	3200	0.87	63
2	3225	0.88	20
2	3252	0.89	2
2	3285	0.9	26
2	3328	0.91	62
2	3365	0.92	3
2	3404	0.93	70
2	3435	0.94	0
2	3470	0.95	0
2	3501	0.96	67
2	3530	0.97	0
2	3573	0.98	146
2	3608	0.99	185
2	3649	1	0
2	3690	1.01	106
2	3733	1.02	0
2	3776	1.03	20
2	3801	1.04	0
2	3844	1.05	0
2	3889	1.06	35
2	3930	1.07	29
2	3977	1.08	0
2	4022	1.09	95
2	4061	1.1	0
2	4094	1.11	56
2	4133	1.12	58
2	4162	1.13	0
2	4191	1.14	0
2	4220	1.15	59
2	4261	1.16	89
2	4306	1.17	86
2	4333	1.18	118
2	4368	1.19	149
2	4403	1.2	30
2	4442	1.21	0
2	4491	1.22	0
2	4542	1.23	14
2	4569	1.24	0
2	4608	1.25	97
2	4635	1.26	189
2	4684	1.27	0
2	4721	1.28	90
2	4752	1.29	0
2	4793	1.3	0
2	4830	1.31	0
2	4877	1.32	74
2	4908	1.33	20
2	4945	1.34	0
2	4970	1.35	53
2	5015	1.36	0
2	5066	1.37	25
2	5101	1.38	0
2	5142	1.39	0
2	5175	1.4	0
2	5208	1.41	0
2	5257	1.42	157
2	5292	1.43	0
2	5331	1.44	98
2	5358	1.45	0
2	5395	1.46	118
2	5418	1.47	69
2	5449	1.48	0
2	5486	1.49	11
2	5517	1.5	31
2	5550	1.51	0
2	5579	1.52	86
2	5616	1.53	0
2	5649	1.54	0
2	5688	1.55	15
2	5723	1.56	23
2	5762	1.57	4
2	5791	1.58	0
2	5822	1.59	0
2	5861	1.6	137
2	5892	1.61	0
2	5927	1.62	55
2	5972	1.63	67
2	6013	1.64	67
2	6050	1.65	88
2	6081	1.66	13
2	6118	1.67	65
2	6159	1.68	0
2	6188	1.69	128
2	6223	1.7	67
2	6266	1.71	112
2	6313	1.72	72
2	6368	1.73	66
2	6397	1.74	0
2	6426	1.75	0
2	6451	1.76	266
2	6490	1.77	0
2	6533	1.78	12
2	6568	1.79	0
2	6595	1.8	75
2	6632	1.81	0
2	6663	1.82	0
2	6692	1.83	0
2	6721	1.84	95
2	6742	1.85	44
2	6769	1.86	39
2	6806	1.87	0
2	6841	1.88	57
2	6888	1.89	0
2	6923	1.9	10
2	6962	1.91	4
2	7005	1.92	0
2	7054	1.93	0
2	7103	1.94	290
2	7140	1.95	26
2	7193	1.96	239
2	7234	1.97	0
2	7287	1.98	117
2	7326	1.99	97
2	7363	2	0
2	7398	2.01	23
2	7427	2.02	74
2	7464	2.03	0
2	7505	2.04	0
2	7536	2.05	0
2	7575	2.06	7
2	7608	2.07	0
2	7635	2.08	29
2	7662	2.09	28
2	7693	2.1	28
2	7726	2.11	9
2	7765	2.12	24
2	7810	2.13	0
2	7837	2.14	135
2	7880	2.15	53
2	7929	2.16	26
2	7968	2.17	0
2	8007	2.18	19
2	8036	2.19	36
2	8065	2.2	115
2	8092	2.21	62
2	8117	2.22	0
2	8150	2.23	0
2	8181	2.24	60
2	8220	2.25	15
2	8251	2.26	66
2	8292	2.27	70
2	8329	2.28	0
2	8374	2.29	68
2	8417	2.3	0
2	8462	2.31	53
2	8495	2.32	8
2	8536	2.33	0
2	8565	2.34	0
2	8606	2.35	38
2	8643	2.36	20
2	8672	2.37	0
2	8703	2.38	0
2	8730	2.39	33
2	8767	2.4	0
2	8794	2.41	86
2	8821	2.42	0
2	8852	2.43	43
2	8891	2.44	0
2	8918	2.45	142
2	8959	2.46	65
2	8996	2.47	0
2	9035	2.48	124
2	9070	2.49	0
2	9103	2.5	12
2	9146	2.51	74
2	9181	2.52	2
2	9218	2.53	0
2	9255	2.54	68
2	9276	2.55	66
2	9307	2.56	0
2	9346	2.57	0
2	9395	2.58	0
2	9420	2.59	333
2	9455	2.6	0
2	9498	2.61	28
2	9553	2.62	74
2	9592	2.63	56
2	9631	2.64	0
2	9660	2.65	58
2	9687	2.66	5
2	9730	2.67	33
2	9763	2.68	9
2	9802	2.69	0
2	9833	2.7	0
2	9882	2.71	0
2	9923	2.72	119
2	9956	2.73	126
2	9995	2.74	9
2	10022	2.75	0
2	10055	2.76	0
2	10096	2.77	121
2	10135	2.78	66
2	10180	2.79	6
2	10213	2.8	37
2	10256	2.81	0
2	10295	2.82	2
2	10340	2.83	24
2	10365	2.84	113
2	10398	2.85	0
2	10433	2.86	73
2	10466	2.87	0
2	10509	2.88	44
2	10546	2.89	61
2	10575	2.9	0
2	10624	2.91	54
2	10657	2.92	46
2	10692	2.93	62
2	10727	2.94	41
2	10774	2.95	0
2	10827	2.96	137
2	10868	2.97	0
2	10897	2.98	0
2	10930	2.99	197
2	10965	3	0
2	10990	3.01	0
2	11027	3.02	0
2	11058	3.03	0
2	11093	3.04	0
2	11128	3.05	71
2	11175	3.06	0
2	11214	3.07	247
2	11253	3.08	0
2	11286	3.09	0
2	11333	3.1	0
2	11356	3.11	122
2	11407	3.12	0
2	11436	3.13	213
2	11477	3.14	55
2	11522	3.15	0
2	11553	3.16	120
2	11592	3.17	0
2	11619	3.18	23
2	11658	3.19	26
2	11699	3.2	78
2	11726	3.21	0
2	11759	3.22	6
2	11794	3.23	43
2	11829	3.24	43
2	11860	3.25	133
2	11895	3.26	0
2	11942	3.27	137
2	11977	3.28	144
2	12022	3.29	29
2	12061	3.3	29
2	12102	3.31	0
2	12133	3.32	0
2	12172	3.33	63
2	12221	3.34	38
2	12254	3.35	47
2	12291	3.36	0
2	12320	3.37	162
2	12359	3.38	0
2	12388	3.39	0
2	12419	3.4	63
2	12468	3.41	128
2	12509	3.42	83
2	12536	3.43	58
2	12585	3.44	67
2	12604	3.45	0
2	12635	3.46	0
2	12670	3.47	0
2	12695	3.48	0
2	12734	3.49	121
2	12779	3.5	97
2	12808	3.51	109
2	12845	3.52	34
2	12880	3.53	49
2	12925	3.54	62
2	12962	3.55	137
2	13005	3.56	0
2	13040	3.57	59
2	13073	3.58	58
2	13110	3.59	91
2	13139	3.6	86
2	13176	3.61	72
2	13211	3.62	11
2	13258	3.63	62
2	13287	3.64	0
2	13312	3.65	101
2	13341	3.66	41
2	13380	3.67	21
2	13419	3.68	141
2	13458	3.69	47
2	13493	3.7	0
2	13530	3.71	68
2	13549	3.72	56
2	13590	3.73	0
2	13629	3.74	0
2	13670	3.75	209
2	13715	3.76	59
2	13750	3.77	50
2	13793	3.78	0
2	13832	3.79	0
2	13863	3.8	0
2	13904	3.81	107
2	13945	3.82	0
2	13976	3.83	105
2	14005	3.84	0
2	14044	3.85	183
2	14073	3.86	0
2	14118	3.87	0
2	14157	3.88	73
2	14200	3.89	55
2	14239	3.9	0
2	14274	3.91	23
2	14307	3.92	81
2	14346	3.93	27
2	14373	3.94	0
2	14420	3.95	0
2	14461	3.96	150
2	14496	3.97	88
2	14533	3.98	104
2	14568	3.99	90
2	14609	4	9
2	14646	4.01	17
2	14689	4.02	0
2	14718	4.03	0
2	14747	4.04	185
2	14780	4.05	0
2	14819	4.06	46
2	14874	4.07	0
2	14915	4.08	66
2	14944	4.09	0
2	14989	4.1	0
2	15024	4.11	0
2	15063	4.12	10
2	15092	4.13	197
2	15125	4.14	0
2	15168	4.15	0
2	15207	4.16	0
2	15248	4.17	177
2	15287	4.18	77
2	15340	4.19	0
2	15371	4.2	59
2	15418	4.21	0
2	15463	4.22	10
2	15506	4.23	56
2	15543	4.24	0
2	15586	4.25	119
2	15631	4.26	204
2	15670	4.27	10
2	15703	4.28	0
2	15740	4.29	99
2	15785	4.3	65
2	15832	4.31	98
2	15873	4.32	164
2	15914	4.33	71
2	15951	4.34	73
2	15988	4.35	0
2	16027	4.36	69
2	16066	4.37	0
2	16095	4.38	70
2	16114	4.39	0
2	16145	4.4	71
2	16182	4.41	95
2	16223	4.42	73
2	16258	4.43	25
2	16285	4.44	44
2	16320	4.45	0
2	16347	4.46	91
2	16376	4.47	48
2	16413	4.48	93
2	16458	4.49	12
2	16503	4.5	23
2	16538	4.51	43
2	16577	4.52	0
2	16614	4.53	95
2	16641	4.54	0
2	16672	4.55	0
2	16715	4.56	98
2	16740	4.57	0
2	16789	4.58	0
2	16830	4.59	26
2	16867	4.6	0
2	16902	4.61	175
2	16933	4.62	122
2	16970	4.63	74
2	16995	4.64	0
2	17034	4.65	67
2	17059	4.66	0
2	17090	4.67	64
2	17123	4.68	18
2	17182	4.69	0
2	17215	4.7	106
2	17248	4.71	2
2	17279	4.72	0
2	17316	4.73	8
2	17357	4.74	11
2	17376	4.75	0
2	17415	4.76	227
2	17454	4.77	11
2	17491	4.78	107
2	17522	4.79	62
2	17555	4.8	58
2	17584	4.81	33
2	17625	4.82	34
2	17660	4.83	75
2	17691	4.84	0
2	17722	4.85	0
2	17763	4.86	87
2	17806	4.87	131
2	17841	4.88	0
2	17876	4.89	73
2	17913	4.9	0
2	17940	4.91	0
2	17963	4.92	271
2	18008	4.93	1
2	18045	4.94	9
2	18072	4.95	6
2	18103	4.96	35
2	18140	4.97	0
2	18173	4.98	0
2	18212	4.99	173
2	18247	5	0
2	18292	5.01	24
2	18331	5.02	0
2	18374	5.03	113
2	18425	5.04	0
2	18478	5.05	204
2	18525	5.06	0
2	18554	5.07	56
2	18609	5.08	30
2	18650	5.09	258
2	18683	5.1	155
2	18714	5.11	50
2	18749	5.12	0
2	18784	5.13	55
2	18815	5.14	0
2	18850	5.15	48
2	18883	5.16	50
2	18924	5.17	54
2	18947	5.18	68
2	18986	5.19	13
2	19031	5.2	0
2	19064	5.21	0
2	19095	5.22	24
2	19136	5.23	0
2	19183	5.24	92
2	19220	5.25	0
2	19259	5.26	154
2	19298	5.27	0
2	19335	5.28	13
2	19366	5.29	0
2	19401	5.3	73
2	19438	5.31	0
2	19477	5.32	142
2	19500	5.33	0
2	19551	5.34	72
2	19592	5.35	0
2	19619	5.36	82
2	19654	5.37	13
2	19687	5.38	0
2	19730	5.39	0
2	19755	5.4	0
2	19798	5.41	0
2	19837	5.42	179
2	19884	5.43	69
2	19931	5.44	105
2	19968	5.45	71
2	20001	5.46	0
2	20034	5.47	0
2	20069	5.48	37
2	20104	5.49	22
2	20141	5.5	0
2	20178	5.51	23
2	20217	5.52	0
2	20258	5.53	141
2	20293	5.54	0
2	20322	5.55	71
2	20345	5.56	0
2	20388	5.57	0
2	20427	5.58	89
2	20456	5.59	0
2	20499	5.6	36
2	20534	5.61	0
2	20573	5.62	48
2	20604	5.63	156
2	20645	5.64	0
2	20682	5.65	64
2	20713	5.66	17
2	20746	5.67	22
2	20771	5.68	0
2	20802	5.69	0
2	20849	5.7	55
2	20896	5.71	48
2	20927	5.72	67
2	20958	5.73	0
2	21001	5.74	0
2	21030	5.75	37
2	21057	5.76	7
2	21090	5.77	51
2	21131	5.78	37
2	21166	5.79	112
2	21209	5.8	0
2	21254	5.81	156
2	21293	5.82	0
2	21326	5.83	301
2	21353	5.84	0
2	21380	5.85	83
2	21413	5.86	0
2	21444	5.87	53
2	21471	5.88	57
2	21512	5.89	0
2	21549	5.9	11
2	21584	5.91	0
2	21615	5.92	0
2	21638	5.93	25
2	21677	5.94	16
2	21712	5.95	0
2	21751	5.96	160
2	21776	5.97	0
2	21819	5.98	117
2	21844	5.99	119
2	21875	6	0
2	21912	6.01	0
2	21941	6.02	0
2	21988	6.03	116
2	22023	6.04	26
2	22068	6.05	0
2	22107	6.06	0
2	22142	6.07	41
2	22173	6.08	139
2	22214	6.09	0
2	22257	6.1	131
2	22294	6.11	111
2	22341	6.12	95
2	22380	6.13	0
2	22413	6.14	59
2	22448	6.15	262
2	22479	6.16	66
2	22526	6.17	0
2	22579	6.18	0
2	22614	6.19	54
2	22647	6.2	0
2	22688	6.21	0
2	22711	6.22	156
2	22744	6.23	0
2	22771	6.24	41
2	22810	6.25	0
2	22847	6.26	84
2	22882	6.27	0
2	22915	6.28	126
2	22936	6.29	0
2	22969	6.3	107
2	23010	6.31	16
2	23049	6.32	97
2	23080	6.33	0
2	23117	6.34	0
2	23152	6.35	24
2	23201	6.36	46
2	23236	6.37	25
2	23273	6.38	21
2	23320	6.39	58
2	23359	6.4	0
2	23380	6.41	0
2	23413	6.42	0
2	23448	6.43	160
2	23479	6.44	26
2	23510	6.45	60
2	23553	6.46	0
2	23584	6.47	192
2	23615	6.48	0
2	23652	6.49	25
2	23689	6.5	182
2	23730	6.51	88
2	23755	6.52	134
2	23794	6.53	10
2	23829	6.54	47
2	23862	6.55	0
2	23905	6.56	0
2	23950	6.57	0
2	23991	6.58	17
2	24024	6.59	101
2	24063	6.6	0
2	24106	6.61	37
2	24133	6.62	0
2	24164	6.63	0
2	24185	6.64	135
2	24218	6.65	0
2	24255	6.66	87
2	24296	6.67	0
2	24325	6.68	0
2	24378	6.69	0
2	24407	6.7	66
2	24444	6.71	0
2	24479	6.72	25
2	24512	6.73	0
2	24549	6.74	0
2	24604	6.75	55
2	24641	6.76	16
2	24674	6.77	0
2	24701	6.78	26
2	24734	6.79	56
2	24769	6.8	48
2	24806	6.81	0
2	24837	6.82	110
2	24880	6.83	0
2	24909	6.84	0
2	24944	6.85	0
2	24977	6.86	0
2	25008	6.87	41
2	25041	6.88	0
2	25062	6.89	96
2	25091	6.9	0
2	25126	6.91	95
2	25165	6.92	2
2	25208	6.93	0
2	25235	6.94	0
2	25266	6.95	16
2	25311	6.96	11
2	25348	6.97	0
2	25377	6.98	0
2	25404	6.99	0
2	25445	7	61
2	25482	7.01	58
2	25519	7.02	72
2	25558	7.03	70
2	25589	7.04	41
2	25634	7.05	0
2	25679	7.06	0
2	25716	7.07	396
2	25757	7.08	0
2	25790	7.09	76
2	25839	7.1	94
2	25878	7.11	46
2	25911	7.12	150
2	25948	7.13	0
2	25979	7.14	149
2	26012	7.15	0
2	26039	7.16	47
2	26078	7.17	107
2	26107	7.18	42
2	26142	7.19	0
2	26179	7.2	63
2	26206	7.21	71
2	26253	7.22	0
2	26280	7.23	38
2	26307	7.24	14
2	26352	7.25	90
2	26391	7.26	63
2	26434	7.27	130
2	26475	7.28	101
2	26508	7.29	0
2	26545	7.3	138
2	26576	7.31	46
2	26613	7.32	4
2	26652	7.33	86
2	26697	7.34	44
2	26728	7.35	15
2	26759	7.36	0
2	26800	7.37	48
2	26835	7.38	0
2	26878	7.39	78
2	26913	7.4	14
2	26946	7.41	39
2	26981	7.42	0
2	27010	7.43	73
2	27053	7.44	39
2	27090	7.45	31
2	27123	7.46	147
2	27150	7.47	0
2	27189	7.48	0
2	27226	7.49	45
2	27267	7.5	0
2	27296	7.51	0
2	27327	7.52	0
2	27356	7.53	0
2	27387	7.54	51
2	27424	7.55	0
2	27479	7.56	0
2	27518	7.57	26
2	27571	7.58	0
2	27618	7.59	336
2	27653	7.6	0
2	27682	7.61	29
2	27719	7.62	52
2	27756	7.63	0
2	27805	7.64	295
2	27842	7.65	58
2	27871	7.66	0
2	27910	7.67	5
2	27935	7.68	154
2	27960	7.69	0
2	27987	7.7	78
2	28028	7.71	0
2	28065	7.72	26
2	28104	7.73	0
2	28137	7.74	0
2	28164	7.75	73
2	28209	7.76	0
2	28236	7.77	0
2	28275	7.78	22
2	28302	7.79	0
2	28343	7.8	0
2	28378	7.81	76
2	28407	7.82	0
2	28434	7.83	12
2	28471	7.84	188
2	28510	7.85	64
2	28533	7.86	63
2	28574	7.87	18
2	28615	7.88	77
2	28650	7.89	91
2	28689	7.9	0
2	28720	7.91	73
2	28761	7.92	0
2	28796	7.93	0
2	28835	7.94	0
2	28876	7.95	0
2	28915	7.96	0
2	28950	7.97	59
2	28985	7.98	0
2	29038	7.99	0
2	29085	8	164
2	29126	8.01	0
2	29171	8.02	72
2	29208	8.03	0
2	29243	8.04	0
2	29264	8.05	147
2	29303	8.06	0
2	29344	8.07	0
2	29383	8.08	0
2	29424	8.09	0
2	29467	8.1	138
2	29506	8.11	32
2	29533	8.12	17
2	29568	8.13	0
2	29617	8.14	0
2	29646	8.15	394
2	29683	8.16	0
2	29722	8.17	0
2	29755	8.18	0
2	29790	8.19	124
2	29833	8.2	24
2	29878	8.21	0
2	29907	8.22	75
2	29954	8.23	0
2	30003	8.24	103
2	30040	8.25	0
2	30081	8.26	286
2	30118	8.27	154
2	30151	8.28	0
2	30178	8.29	149
2	30211	8.3	121
2	30260	8.31	50
2	30291	8.32	129
2	30320	8.33	0
2	30353	8.34	45
2	30388	8.35	0
2	30421	8.36	91
2	30460	8.37	18
2	30499	8.38	0
2	30532	8.39	101
2	30577	8.4	1
2	30620	8.41	183
2	30649	8.42	39
2	30680	8.43	80
2	30711	8.44	52
2	30752	8.45	0
2	30785	8.46	0
2	30810	8.47	131
2	30855	8.48	96
2	30888	8.49	38
2	30917	8.5	0
2	30956	8.51	0
2	30989	8.52	11
2	31030	8.53	0
2	31063	8.54	33
2	31108	8.55	57
2	31143	8.56	54
2	31170	8.57	15
2	31193	8.58	94
2	31220	8.59	58
2	31259	8.6	0
2	31288	8.61	0
2	31333	8.62	37
2	31370	8.63	0
2	31409	8.64	65
2	31440	8.65	0
2	31485	8.66	95
2	31518	8.67	38
2	31571	8.68	0
2	31602	8.69	100
2	31639	8.7	0
2	31676	8.71	88
2	31709	8.72	58
2	31740	8.73	0
2	31775	8.74	53
2	31816	8.75	63
2	31855	8.76	41
2	31888	8.77	0
2	31923	8.78	28
2	31972	8.79	0
2	32005	8.8	6
2	32034	8.81	90
2	32065	8.82	0
2	32112	8.83	27
2	32167	8.84	0
2	32192	8.85	189
2	32227	8.86	50
2	32272	8.87	0
2	32313	8.88	67
2	32352	8.89	24
2	32397	8.9	47
2	32424	8.91	84
2	32461	8.92	0
2	32492	8.93	0
2	32523	8.94	283
2	32572	8.95	58
2	32605	8.96	174
2	32624	8.97	66
2	32665	8.98	0
2	32706	8.99	0
2	32747	9	86
2	32786	9.01	67
2	32835	9.02	165
2	32864	9.03	0
2	32891	9.04	65
2	32920	9.05	0
2	32955	9.06	0
2	32990	9.07	62
2	33017	9.08	0
2	33046	9.09	79
2	33093	9.1	236
2	33126	9.11	0
2	33157	9.12	0
2	33206	9.13	0
2	33233	9.14	0
2	33258	9.15	0
2	33287	9.16	54
2	33312	9.17	0
2	33347	9.18	0
2	33378	9.19	22
2	33417	9.2	56
2	33442	9.21	75
2	33477	9.22	0
2	33510	9.23	4
2	33535	9.24	32
2	33566	9.25	0
2	33599	9.26	58
2	33636	9.27	0
2	33675	9.28	58
2	33694	9.29	18
2	33743	9.3	0
2	33776	9.31	82
2	33805	9.32	0
2	33832	9.33	0
2	33863	9.34	22
2	33906	9.35	32
2	33947	9.36	12
2	33988	9.37	121
2	34043	9.38	41
2	34076	9.39	64
2	34113	9.4	4
2	34150	9.41	51
2	34187	9.42	25
2	34232	9.43	68
2	34265	9.44	114
2	34310	9.45	32
2	34353	9.46	62
2	34390	9.47	6
2	34429	9.48	0
2	34480	9.49	0
2	34509	9.5	86
2	34536	9.51	34
2	34563	9.52	40
2	34588	9.53	40
2	34619	9.54	39
2	34646	9.55	15
2	34679	9.56	13
2	34722	9.57	13
2	34771	9.58	0
2	34814	9.59	43
2	34851	9.6	67
2	34890	9.61	184
2	34921	9.62	94
2	34956	9.63	75
2	34997	9.64	25
2	35032	9.65	104
2	35061	9.66	74
2	35098	9.67	70
2	35151	9.68	0
2	35202	9.69	129
2	35243	9.7	0
2	35286	9.71	107
2	35331	9.72	0
2	35370	9.73	0
2	35405	9.74	102
2	35434	9.75	0
2	35459	9.76	180
2	35492	9.77	41
2	35525	9.78	0
2	35556	9.79	0
2	35583	9.8	57
2	35626	9.81	0
2	35665	9.82	0
2	35694	9.83	167
2	35731	9.84	0
2	35766	9.85	0
2	35807	9.86	46
2	35832	9.87	0
2	35861	9.88	185
2	35896	9.89	143
2	35951	9.9	0
2	35976	9.91	89
2	36019	9.92	0
2	36046	9.93	0
2	36079	9.94	80
2	36108	9.95	0
2	36149	9.96	141
2	36188	9.97	69
2	36225	9.98	0
2	36264	9.99	0
2	36295	10	66
3	40	0.01	0
3	65	0.02	201
3	112	0.03	0
3	145	0.04	23
3	180	0.05	70
3	213	0.06	0
3	246	0.07	0
3	289	0.08	120
3	332	0.09	66
3	359	0.1	65
3	388	0.11	15
3	427	0.12	0
3	482	0.13	0
3	529	0.14	190
3	572	0.15	0
3	607	0.16	254
3	640	0.17	32
3	681	0.18	90
3	706	0.19	64
3	739	0.2	37
3	780	0.21	70
3	819	0.22	0
3	848	0.23	56
3	871	0.24	0
3	902	0.25	0
3	939	0.26	61
3	974	0.27	0
3	1017	0.28	89
3	1052	0.29	30
3	1103	0.3	45
3	1138	0.31	36
3	1183	0.32	95
3	1232	0.33	0
3	1275	0.34	109
3	1318	0.35	28
3	1355	0.36	107
3	1394	0.37	60
3	1427	0.38	0
3	1468	0.39	0
3	1497	0.4	27
3	1538	0.41	1
3	1575	0.42	76
3	1612	0.43	38
3	1657	0.44	35
3	1698	0.45	194
3	1735	0.46	72
3	1772	0.47	0
3	1807	0.48	42
3	1838	0.49	0
3	1869	0.5	0
3	1910	0.51	94
3	1947	0.52	56
3	1982	0.53	0
3	2021	0.54	24
3	2060	0.55	0
3	2097	0.56	79
3	2134	0.57	0
3	2163	0.58	3
3	2188	0.59	13
3	2219	0.6	58
3	2270	0.61	119
3	2321	0.62	139
3	2352	0.63	80
3	2389	0.64	0
3	2432	0.65	0
3	2467	0.66	93
3	2490	0.67	0
3	2527	0.68	28
3	2564	0.69	0
3	2599	0.7	33
3	2630	0.71	0
3	2661	0.72	0
3	2686	0.73	204
3	2727	0.74	24
3	2754	0.75	53
3	2783	0.76	0
3	2818	0.77	199
3	2851	0.78	96
3	2896	0.79	92
3	2933	0.8	146
3	2972	0.81	0
3	3019	0.82	107
3	3054	0.83	54
3	3075	0.84	3
3	3108	0.85	0
3	3157	0.86	18
3	3200	0.87	0
3	3225	0.88	7
3	3252	0.89	0
3	3285	0.9	160
3	3328	0.91	23
3	3365	0.92	45
3	3404	0.93	49
3	3435	0.94	71
3	3470	0.95	0
3	3501	0.96	102
3	3530	0.97	0
3	3573	0.98	0
3	3608	0.99	70
3	3649	1	0
3	3690	1.01	206
3	3733	1.02	87
3	3776	1.03	16
3	3801	1.04	0
3	3844	1.05	109
3	3889	1.06	80
3	3930	1.07	0
3	3977	1.08	60
3	4022	1.09	0
3	4061	1.1	90
3	4094	1.11	52
3	4133	1.12	78
3	4162	1.13	0
3	4191	1.14	70
3	4220	1.15	45
3	4261	1.16	0
3	4306	1.17	155
3	4333	1.18	0
3	4368	1.19	0
3	4403	1.2	27
3	4442	1.21	153
3	4491	1.22	0
3	4542	1.23	75
3	4569	1.24	210
3	4608	1.25	0
3	4635	1.26	23
3	4684	1.27	74
3	4721	1.28	75
3	4752	1.29	113
3	4793	1.3	54
3	4830	1.31	0
3	4877	1.32	87
3	4908	1.33	154
3	4945	1.34	57
3	4970	1.35	0
3	5015	1.36	39
3	5066	1.37	0
3	5101	1.38	0
3	5142	1.39	0
3	5175	1.4	0
3	5208	1.41	153
3	5257	1.42	116
3	5292	1.43	30
3	5331	1.44	43
3	5358	1.45	77
3	5395	1.46	0
3	5418	1.47	0
3	5449	1.48	43
3	5486	1.49	0
3	5517	1.5	0
3	5550	1.51	203
3	5579	1.52	53
3	5616	1.53	9
3	5649	1.54	162
3	5688	1.55	9
3	5723	1.56	33
3	5762	1.57	0
3	5791	1.58	6
3	5822	1.59	19
3	5861	1.6	0
3	5892	1.61	22
3	5927	1.62	63
3	5972	1.63	0
3	6013	1.64	111
3	6050	1.65	65
3	6081	1.66	0
3	6118	1.67	0
3	6159	1.68	38
3	6188	1.69	59
3	6223	1.7	51
3	6266	1.71	0
3	6313	1.72	0
3	6368	1.73	0
3	6397	1.74	0
3	6426	1.75	78
3	6451	1.76	144
3	6490	1.77	0
3	6533	1.78	0
3	6568	1.79	0
3	6595	1.8	192
3	6632	1.81	74
3	6663	1.82	0
3	6692	1.83	47
3	6721	1.84	14
3	6742	1.85	24
3	6769	1.86	0
3	6806	1.87	50
3	6841	1.88	92
3	6888	1.89	0
3	6923	1.9	63
3	6962	1.91	0
3	7005	1.92	37
3	7054	1.93	99
3	7103	1.94	0
3	7140	1.95	189
3	7193	1.96	0
3	7234	1.97	119
3	7287	1.98	52
3	7326	1.99	0
3	7363	2	119
3	7398	2.01	155
3	7427	2.02	45
3	7464	2.03	180
3	7505	2.04	33
3	7536	2.05	0
3	7575	2.06	92
3	7608	2.07	196
3	7635	2.08	33
3	7662	2.09	129
3	7693	2.1	0
3	7726	2.11	0
3	7765	2.12	53
3	7810	2.13	0
3	7837	2.14	58
3	7880	2.15	0
3	7929	2.16	27
3	7968	2.17	0
3	8007	2.18	35
3	8036	2.19	0
3	8065	2.2	131
3	8092	2.21	0
3	8117	2.22	66
3	8150	2.23	80
3	8181	2.24	94
3	8220	2.25	74
3	8251	2.26	0
3	8292	2.27	102
3	8329	2.28	0
3	8374	2.29	51
3	8417	2.3	122
3	8462	2.31	110
3	8495	2.32	140
3	8536	2.33	84
3	8565	2.34	84
3	8606	2.35	52
3	8643	2.36	83
3	8672	2.37	87
3	8703	2.38	0
3	8730	2.39	15
3	8767	2.4	40
3	8794	2.41	32
3	8821	2.42	0
3	8852	2.43	0
3	8891	2.44	1
3	8918	2.45	0
3	8959	2.46	23
3	8996	2.47	0
3	9035	2.48	419
3	9070	2.49	53
3	9103	2.5	111
3	9146	2.51	23
3	9181	2.52	2
3	9218	2.53	12
3	9255	2.54	95
3	9276	2.55	40
3	9307	2.56	0
3	9346	2.57	0
3	9395	2.58	0
3	9420	2.59	246
3	9455	2.6	53
3	9498	2.61	132
3	9553	2.62	0
3	9592	2.63	178
3	9631	2.64	81
3	9660	2.65	104
3	9687	2.66	25
3	9730	2.67	0
3	9763	2.68	49
3	9802	2.69	0
3	9833	2.7	0
3	9882	2.71	65
3	9923	2.72	71
3	9956	2.73	99
3	9995	2.74	179
3	10022	2.75	29
3	10055	2.76	40
3	10096	2.77	0
3	10135	2.78	29
3	10180	2.79	0
3	10213	2.8	35
3	10256	2.81	81
3	10295	2.82	0
3	10340	2.83	107
3	10365	2.84	0
3	10398	2.85	27
3	10433	2.86	41
3	10466	2.87	43
3	10509	2.88	63
3	10546	2.89	91
3	10575	2.9	151
3	10624	2.91	0
3	10657	2.92	0
3	10692	2.93	90
3	10727	2.94	56
3	10774	2.95	68
3	10827	2.96	79
3	10868	2.97	0
3	10897	2.98	0
3	10930	2.99	98
3	10965	3	0
3	10990	3.01	0
3	11027	3.02	0
3	11058	3.03	221
3	11093	3.04	0
3	11128	3.05	126
3	11175	3.06	0
3	11214	3.07	133
3	11253	3.08	0
3	11286	3.09	0
3	11333	3.1	0
3	11356	3.11	0
3	11407	3.12	174
3	11436	3.13	119
3	11477	3.14	0
3	11522	3.15	0
3	11553	3.16	78
3	11592	3.17	0
3	11619	3.18	73
3	11658	3.19	39
3	11699	3.2	44
3	11726	3.21	122
3	11759	3.22	0
3	11794	3.23	0
3	11829	3.24	95
3	11860	3.25	73
3	11895	3.26	50
3	11942	3.27	0
3	11977	3.28	86
3	12022	3.29	58
3	12061	3.3	92
3	12102	3.31	100
3	12133	3.32	0
3	12172	3.33	0
3	12221	3.34	0
3	12254	3.35	219
3	12291	3.36	0
3	12320	3.37	161
3	12359	3.38	0
3	12388	3.39	0
3	12419	3.4	60
3	12468	3.41	0
3	12509	3.42	0
3	12536	3.43	54
3	12585	3.44	10
3	12604	3.45	99
3	12635	3.46	0
3	12670	3.47	0
3	12695	3.48	8
3	12734	3.49	80
3	12779	3.5	0
3	12808	3.51	26
3	12845	3.52	59
3	12880	3.53	0
3	12925	3.54	42
3	12962	3.55	120
3	13005	3.56	0
3	13040	3.57	85
3	13073	3.58	69
3	13110	3.59	0
3	13139	3.6	47
3	13176	3.61	78
3	13211	3.62	0
3	13258	3.63	0
3	13287	3.64	0
3	13312	3.65	102
3	13341	3.66	0
3	13380	3.67	55
3	13419	3.68	2
3	13458	3.69	49
3	13493	3.7	70
3	13530	3.71	74
3	13549	3.72	0
3	13590	3.73	7
3	13629	3.74	0
3	13670	3.75	196
3	13715	3.76	0
3	13750	3.77	137
3	13793	3.78	48
3	13832	3.79	69
3	13863	3.8	0
3	13904	3.81	35
3	13945	3.82	264
3	13976	3.83	0
3	14005	3.84	64
3	14044	3.85	0
3	14073	3.86	0
3	14118	3.87	0
3	14157	3.88	64
3	14200	3.89	0
3	14239	3.9	132
3	14274	3.91	31
3	14307	3.92	13
3	14346	3.93	69
3	14373	3.94	0
3	14420	3.95	42
3	14461	3.96	56
3	14496	3.97	4
3	14533	3.98	78
3	14568	3.99	61
3	14609	4	124
3	14646	4.01	0
3	14689	4.02	27
3	14718	4.03	0
3	14747	4.04	199
3	14780	4.05	0
3	14819	4.06	80
3	14874	4.07	0
3	14915	4.08	0
3	14944	4.09	115
3	14989	4.1	33
3	15024	4.11	0
3	15063	4.12	1
3	15092	4.13	271
3	15125	4.14	22
3	15168	4.15	0
3	15207	4.16	0
3	15248	4.17	109
3	15287	4.18	11
3	15340	4.19	0
3	15371	4.2	82
3	15418	4.21	0
3	15463	4.22	0
3	15506	4.23	186
3	15543	4.24	0
3	15586	4.25	70
3	15631	4.26	406
3	15670	4.27	0
3	15703	4.28	134
3	15740	4.29	0
3	15785	4.3	73
3	15832	4.31	84
3	15873	4.32	29
3	15914	4.33	17
3	15951	4.34	38
3	15988	4.35	0
3	16027	4.36	30
3	16066	4.37	0
3	16095	4.38	0
3	16114	4.39	98
3	16145	4.4	0
3	16182	4.41	115
3	16223	4.42	90
3	16258	4.43	0
3	16285	4.44	0
3	16320	4.45	0
3	16347	4.46	0
3	16376	4.47	46
3	16413	4.48	0
3	16458	4.49	59
3	16503	4.5	74
3	16538	4.51	0
3	16577	4.52	0
3	16614	4.53	13
3	16641	4.54	0
3	16672	4.55	0
3	16715	4.56	0
3	16740	4.57	209
3	16789	4.58	0
3	16830	4.59	0
3	16867	4.6	224
3	16902	4.61	0
3	16933	4.62	0
3	16970	4.63	84
3	16995	4.64	104
3	17034	4.65	56
3	17059	4.66	119
3	17090	4.67	52
3	17123	4.68	71
3	17182	4.69	34
3	17215	4.7	0
3	17248	4.71	134
3	17279	4.72	69
3	17316	4.73	39
3	17357	4.74	69
3	17376	4.75	0
3	17415	4.76	107
3	17454	4.77	139
3	17491	4.78	5
3	17522	4.79	0
3	17555	4.8	27
3	17584	4.81	0
3	17625	4.82	66
3	17660	4.83	0
3	17691	4.84	92
3	17722	4.85	0
3	17763	4.86	0
3	17806	4.87	0
3	17841	4.88	113
3	17876	4.89	0
3	17913	4.9	0
3	17940	4.91	0
3	17963	4.92	0
3	18008	4.93	17
3	18045	4.94	127
3	18072	4.95	0
3	18103	4.96	0
3	18140	4.97	0
3	18173	4.98	0
3	18212	4.99	83
3	18247	5	0
3	18292	5.01	0
3	18331	5.02	253
3	18374	5.03	104
3	18425	5.04	0
3	18478	5.05	48
3	18525	5.06	0
3	18554	5.07	96
3	18609	5.08	46
3	18650	5.09	0
3	18683	5.1	0
3	18714	5.11	107
3	18749	5.12	72
3	18784	5.13	0
3	18815	5.14	0
3	18850	5.15	64
3	18883	5.16	21
3	18924	5.17	91
3	18947	5.18	26
3	18986	5.19	56
3	19031	5.2	0
3	19064	5.21	0
3	19095	5.22	27
3	19136	5.23	0
3	19183	5.24	268
3	19220	5.25	27
3	19259	5.26	191
3	19298	5.27	50
3	19335	5.28	151
3	19366	5.29	68
3	19401	5.3	38
3	19438	5.31	0
3	19477	5.32	41
3	19500	5.33	55
3	19551	5.34	0
3	19592	5.35	131
3	19619	5.36	115
3	19654	5.37	0
3	19687	5.38	52
3	19730	5.39	0
3	19755	5.4	0
3	19798	5.41	0
3	19837	5.42	77
3	19884	5.43	119
3	19931	5.44	97
3	19968	5.45	58
3	20001	5.46	0
3	20034	5.47	0
3	20069	5.48	164
3	20104	5.49	45
3	20141	5.5	132
3	20178	5.51	66
3	20217	5.52	0
3	20258	5.53	85
3	20293	5.54	0
3	20322	5.55	142
3	20345	5.56	0
3	20388	5.57	0
3	20427	5.58	245
3	20456	5.59	0
3	20499	5.6	67
3	20534	5.61	0
3	20573	5.62	0
3	20604	5.63	274
3	20645	5.64	0
3	20682	5.65	0
3	20713	5.66	43
3	20746	5.67	199
3	20771	5.68	0
3	20802	5.69	98
3	20849	5.7	0
3	20896	5.71	117
3	20927	5.72	26
3	20958	5.73	78
3	21001	5.74	7
3	21030	5.75	182
3	21057	5.76	0
3	21090	5.77	0
3	21131	5.78	68
3	21166	5.79	12
3	21209	5.8	0
3	21254	5.81	0
3	21293	5.82	29
3	21326	5.83	98
3	21353	5.84	66
3	21380	5.85	0
3	21413	5.86	109
3	21444	5.87	0
3	21471	5.88	0
3	21512	5.89	105
3	21549	5.9	0
3	21584	5.91	92
3	21615	5.92	0
3	21638	5.93	49
3	21677	5.94	27
3	21712	5.95	0
3	21751	5.96	32
3	21776	5.97	0
3	21819	5.98	170
3	21844	5.99	246
3	21875	6	0
3	21912	6.01	109
3	21941	6.02	10
3	21988	6.03	0
3	22023	6.04	76
3	22068	6.05	76
3	22107	6.06	0
3	22142	6.07	73
3	22173	6.08	0
3	22214	6.09	148
3	22257	6.1	74
3	22294	6.11	116
3	22341	6.12	2
3	22380	6.13	0
3	22413	6.14	0
3	22448	6.15	30
3	22479	6.16	0
3	22526	6.17	0
3	22579	6.18	97
3	22614	6.19	0
3	22647	6.2	57
3	22688	6.21	0
3	22711	6.22	170
3	22744	6.23	0
3	22771	6.24	132
3	22810	6.25	50
3	22847	6.26	74
3	22882	6.27	0
3	22915	6.28	267
3	22936	6.29	30
3	22969	6.3	90
3	23010	6.31	0
3	23049	6.32	183
3	23080	6.33	0
3	23117	6.34	0
3	23152	6.35	75
3	23201	6.36	71
3	23236	6.37	96
3	23273	6.38	27
3	23320	6.39	137
3	23359	6.4	0
3	23380	6.41	0
3	23413	6.42	0
3	23448	6.43	0
3	23479	6.44	17
3	23510	6.45	0
3	23553	6.46	27
3	23584	6.47	78
3	23615	6.48	20
3	23652	6.49	141
3	23689	6.5	0
3	23730	6.51	0
3	23755	6.52	11
3	23794	6.53	0
3	23829	6.54	57
3	23862	6.55	28
3	23905	6.56	43
3	23950	6.57	104
3	23991	6.58	43
3	24024	6.59	78
3	24063	6.6	0
3	24106	6.61	63
3	24133	6.62	0
3	24164	6.63	0
3	24185	6.64	0
3	24218	6.65	12
3	24255	6.66	5
3	24296	6.67	65
3	24325	6.68	134
3	24378	6.69	0
3	24407	6.7	115
3	24444	6.71	0
3	24479	6.72	239
3	24512	6.73	10
3	24549	6.74	210
3	24604	6.75	12
3	24641	6.76	169
3	24674	6.77	0
3	24701	6.78	152
3	24734	6.79	119
3	24769	6.8	119
3	24806	6.81	70
3	24837	6.82	0
3	24880	6.83	173
3	24909	6.84	30
3	24944	6.85	38
3	24977	6.86	0
3	25008	6.87	79
3	25041	6.88	0
3	25062	6.89	52
3	25091	6.9	112
3	25126	6.91	51
3	25165	6.92	0
3	25208	6.93	170
3	25235	6.94	131
3	25266	6.95	0
3	25311	6.96	29
3	25348	6.97	103
3	25377	6.98	61
3	25404	6.99	191
3	25445	7	2
3	25482	7.01	0
3	25519	7.02	86
3	25558	7.03	64
3	25589	7.04	27
3	25634	7.05	16
3	25679	7.06	0
3	25716	7.07	0
3	25757	7.08	0
3	25790	7.09	410
3	25839	7.1	55
3	25878	7.11	82
3	25911	7.12	79
3	25948	7.13	0
3	25979	7.14	139
3	26012	7.15	55
3	26039	7.16	56
3	26078	7.17	156
3	26107	7.18	53
3	26142	7.19	26
3	26179	7.2	0
3	26206	7.21	111
3	26253	7.22	15
3	26280	7.23	0
3	26307	7.24	117
3	26352	7.25	73
3	26391	7.26	75
3	26434	7.27	206
3	26475	7.28	60
3	26508	7.29	0
3	26545	7.3	141
3	26576	7.31	0
3	26613	7.32	121
3	26652	7.33	0
3	26697	7.34	53
3	26728	7.35	173
3	26759	7.36	0
3	26800	7.37	0
3	26835	7.38	70
3	26878	7.39	0
3	26913	7.4	178
3	26946	7.41	21
3	26981	7.42	143
3	27010	7.43	117
3	27053	7.44	22
3	27090	7.45	0
3	27123	7.46	248
3	27150	7.47	0
3	27189	7.48	56
3	27226	7.49	75
3	27267	7.5	81
3	27296	7.51	48
3	27327	7.52	54
3	27356	7.53	92
3	27387	7.54	32
3	27424	7.55	75
3	27479	7.56	0
3	27518	7.57	0
3	27571	7.58	0
3	27618	7.59	106
3	27653	7.6	0
3	27682	7.61	0
3	27719	7.62	0
3	27756	7.63	348
3	27805	7.64	130
3	27842	7.65	126
3	27871	7.66	11
3	27910	7.67	114
3	27935	7.68	39
3	27960	7.69	0
3	27987	7.7	0
3	28028	7.71	64
3	28065	7.72	16
3	28104	7.73	0
3	28137	7.74	23
3	28164	7.75	8
3	28209	7.76	0
3	28236	7.77	0
3	28275	7.78	84
3	28302	7.79	0
3	28343	7.8	0
3	28378	7.81	51
3	28407	7.82	0
3	28434	7.83	196
3	28471	7.84	79
3	28510	7.85	43
3	28533	7.86	164
3	28574	7.87	70
3	28615	7.88	0
3	28650	7.89	139
3	28689	7.9	96
3	28720	7.91	0
3	28761	7.92	9
3	28796	7.93	0
3	28835	7.94	18
3	28876	7.95	75
3	28915	7.96	0
3	28950	7.97	0
3	28985	7.98	324
3	29038	7.99	0
3	29085	8	173
3	29126	8.01	0
3	29171	8.02	116
3	29208	8.03	0
3	29243	8.04	0
3	29264	8.05	0
3	29303	8.06	79
3	29344	8.07	38
3	29383	8.08	0
3	29424	8.09	14
3	29467	8.1	0
3	29506	8.11	121
3	29533	8.12	0
3	29568	8.13	0
3	29617	8.14	0
3	29646	8.15	325
3	29683	8.16	0
3	29722	8.17	0
3	29755	8.18	0
3	29790	8.19	35
3	29833	8.2	0
3	29878	8.21	562
3	29907	8.22	42
3	29954	8.23	0
3	30003	8.24	0
3	30040	8.25	280
3	30081	8.26	96
3	30118	8.27	0
3	30151	8.28	76
3	30178	8.29	2
3	30211	8.3	0
3	30260	8.31	0
3	30291	8.32	255
3	30320	8.33	0
3	30353	8.34	216
3	30388	8.35	105
3	30421	8.36	0
3	30460	8.37	132
3	30499	8.38	39
3	30532	8.39	26
3	30577	8.4	5
3	30620	8.41	70
3	30649	8.42	117
3	30680	8.43	0
3	30711	8.44	0
3	30752	8.45	3
3	30785	8.46	56
3	30810	8.47	101
3	30855	8.48	0
3	30888	8.49	32
3	30917	8.5	59
3	30956	8.51	73
3	30989	8.52	33
3	31030	8.53	0
3	31063	8.54	58
3	31108	8.55	0
3	31143	8.56	108
3	31170	8.57	90
3	31193	8.58	23
3	31220	8.59	3
3	31259	8.6	50
3	31288	8.61	0
3	31333	8.62	33
3	31370	8.63	0
3	31409	8.64	196
3	31440	8.65	0
3	31485	8.66	132
3	31518	8.67	43
3	31571	8.68	26
3	31602	8.69	58
3	31639	8.7	48
3	31676	8.71	0
3	31709	8.72	156
3	31740	8.73	0
3	31775	8.74	34
3	31816	8.75	158
3	31855	8.76	62
3	31888	8.77	0
3	31923	8.78	135
3	31972	8.79	52
3	32005	8.8	62
3	32034	8.81	0
3	32065	8.82	65
3	32112	8.83	123
3	32167	8.84	0
3	32192	8.85	64
3	32227	8.86	67
3	32272	8.87	62
3	32313	8.88	45
3	32352	8.89	96
3	32397	8.9	53
3	32424	8.91	49
3	32461	8.92	50
3	32492	8.93	0
3	32523	8.94	63
3	32572	8.95	0
3	32605	8.96	60
3	32624	8.97	0
3	32665	8.98	250
3	32706	8.99	17
3	32747	9	0
3	32786	9.01	0
3	32835	9.02	55
3	32864	9.03	330
3	32891	9.04	105
3	32920	9.05	0
3	32955	9.06	16
3	32990	9.07	0
3	33017	9.08	117
3	33046	9.09	53
3	33093	9.1	28
3	33126	9.11	45
3	33157	9.12	137
3	33206	9.13	108
3	33233	9.14	34
3	33258	9.15	33
3	33287	9.16	5
3	33312	9.17	68
3	33347	9.18	11
3	33378	9.19	30
3	33417	9.2	54
3	33442	9.21	78
3	33477	9.22	0
3	33510	9.23	78
3	33535	9.24	117
3	33566	9.25	0
3	33599	9.26	0
3	33636	9.27	0
3	33675	9.28	196
3	33694	9.29	70
3	33743	9.3	0
3	33776	9.31	66
3	33805	9.32	0
3	33832	9.33	126
3	33863	9.34	0
3	33906	9.35	22
3	33947	9.36	110
3	33988	9.37	71
3	34043	9.38	108
3	34076	9.39	1
3	34113	9.4	105
3	34150	9.41	0
3	34187	9.42	0
3	34232	9.43	44
3	34265	9.44	131
3	34310	9.45	7
3	34353	9.46	31
3	34390	9.47	7
3	34429	9.48	74
3	34480	9.49	131
3	34509	9.5	0
3	34536	9.51	0
3	34563	9.52	0
3	34588	9.53	54
3	34619	9.54	53
3	34646	9.55	65
3	34679	9.56	0
3	34722	9.57	70
3	34771	9.58	0
3	34814	9.59	37
3	34851	9.6	0
3	34890	9.61	188
3	34921	9.62	193
3	34956	9.63	58
3	34997	9.64	0
3	35032	9.65	86
3	35061	9.66	62
3	35098	9.67	0
3	35151	9.68	29
3	35202	9.69	0
3	35243	9.7	0
3	35286	9.71	0
3	35331	9.72	270
3	35370	9.73	233
3	35405	9.74	0
3	35434	9.75	62
3	35459	9.76	0
3	35492	9.77	64
3	35525	9.78	130
3	35556	9.79	124
3	35583	9.8	79
3	35626	9.81	66
3	35665	9.82	64
3	35694	9.83	62
3	35731	9.84	40
3	35766	9.85	0
3	35807	9.86	4
3	35832	9.87	64
3	35861	9.88	0
3	35896	9.89	42
3	35951	9.9	40
3	35976	9.91	0
3	36019	9.92	134
3	36046	9.93	0
3	36079	9.94	0
3	36108	9.95	0
3	36149	9.96	0
3	36188	9.97	0
3	36225	9.98	0
3	36264	9.99	0
3	36295	10	274
4	40	0.01	0
4	65	0.02	63
4	112	0.03	50
4	145	0.04	29
4	180	0.05	91
4	213	0.06	41
4	246	0.07	0
4	289	0.08	29
4	332	0.09	172
4	359	0.1	72
4	388	0.11	0
4	427	0.12	1
4	482	0.13	76
4	529	0.14	72
4	572	0.15	0
4	607	0.16	209
4	640	0.17	0
4	681	0.18	120
4	706	0.19	2
4	739	0.2	67
4	780	0.21	0
4	819	0.22	27
4	848	0.23	21
4	871	0.24	53
4	902	0.25	55
4	939	0.26	119
4	974	0.27	71
4	1017	0.28	105
4	1052	0.29	0
4	1103	0.3	66
4	1138	0.31	22
4	1183	0.32	0
4	1232	0.33	158
4	1275	0.34	209
4	1318	0.35	0
4	1355	0.36	137
4	1394	0.37	20
4	1427	0.38	47
4	1468	0.39	0
4	1497	0.4	29
4	1538	0.41	0
4	1575	0.42	111
4	1612	0.43	70
4	1657	0.44	0
4	1698	0.45	27
4	1735	0.46	119
4	1772	0.47	153
4	1807	0.48	73
4	1838	0.49	0
4	1869	0.5	14
4	1910	0.51	157
4	1947	0.52	78
4	1982	0.53	68
4	2021	0.54	47
4	2060	0.55	0
4	2097	0.56	32
4	2134	0.57	0
4	2163	0.58	64
4	2188	0.59	206
4	2219	0.6	1
4	2270	0.61	62
4	2321	0.62	0
4	2352	0.63	125
4	2389	0.64	61
4	2432	0.65	0
4	2467	0.66	0
4	2490	0.67	162
4	2527	0.68	4
4	2564	0.69	119
4	2599	0.7	41
4	2630	0.71	0
4	2661	0.72	100
4	2686	0.73	73
4	2727	0.74	0
4	2754	0.75	15
4	2783	0.76	157
4	2818	0.77	0
4	2851	0.78	14
4	2896	0.79	0
4	2933	0.8	0
4	2972	0.81	0
4	3019	0.82	123
4	3054	0.83	18
4	3075	0.84	0
4	3108	0.85	61
4	3157	0.86	67
4	3200	0.87	1
4	3225	0.88	7
4	3252	0.89	0
4	3285	0.9	0
4	3328	0.91	0
4	3365	0.92	93
4	3404	0.93	103
4	3435	0.94	43
4	3470	0.95	137
4	3501	0.96	81
4	3530	0.97	70
4	3573	0.98	0
4	3608	0.99	40
4	3649	1	0
4	3690	1.01	53
4	3733	1.02	31
4	3776	1.03	188
4	3801	1.04	81
4	3844	1.05	0
4	3889	1.06	37
4	3930	1.07	0
4	3977	1.08	35
4	4022	1.09	0
4	4061	1.1	44
4	4094	1.11	0
4	4133	1.12	0
4	4162	1.13	0
4	4191	1.14	118
4	4220	1.15	124
4	4261	1.16	0
4	4306	1.17	0
4	4333	1.18	70
4	4368	1.19	117
4	4403	1.2	69
4	4442	1.21	20
4	4491	1.22	74
4	4542	1.23	0
4	4569	1.24	7
4	4608	1.25	113
4	4635	1.26	0
4	4684	1.27	0
4	4721	1.28	105
4	4752	1.29	115
4	4793	1.3	99
4	4830	1.31	0
4	4877	1.32	0
4	4908	1.33	0
4	4945	1.34	47
4	4970	1.35	12
4	5015	1.36	63
4	5066	1.37	79
4	5101	1.38	0
4	5142	1.39	52
4	5175	1.4	0
4	5208	1.41	29
4	5257	1.42	59
4	5292	1.43	69
4	5331	1.44	0
4	5358	1.45	92
4	5395	1.46	0
4	5418	1.47	41
4	5449	1.48	65
4	5486	1.49	54
4	5517	1.5	0
4	5550	1.51	0
4	5579	1.52	0
4	5616	1.53	0
4	5649	1.54	75
4	5688	1.55	36
4	5723	1.56	75
4	5762	1.57	116
4	5791	1.58	70
4	5822	1.59	0
4	5861	1.6	0
4	5892	1.61	27
4	5927	1.62	0
4	5972	1.63	83
4	6013	1.64	0
4	6050	1.65	108
4	6081	1.66	102
4	6118	1.67	0
4	6159	1.68	187
4	6188	1.69	44
4	6223	1.7	0
4	6266	1.71	5
4	6313	1.72	135
4	6368	1.73	58
4	6397	1.74	0
4	6426	1.75	56
4	6451	1.76	6
4	6490	1.77	0
4	6533	1.78	0
4	6568	1.79	0
4	6595	1.8	71
4	6632	1.81	60
4	6663	1.82	28
4	6692	1.83	21
4	6721	1.84	0
4	6742	1.85	0
4	6769	1.86	0
4	6806	1.87	60
4	6841	1.88	0
4	6888	1.89	51
4	6923	1.9	113
4	6962	1.91	35
4	7005	1.92	0
4	7054	1.93	133
4	7103	1.94	0
4	7140	1.95	50
4	7193	1.96	9
4	7234	1.97	148
4	7287	1.98	93
4	7326	1.99	35
4	7363	2	0
4	7398	2.01	44
4	7427	2.02	0
4	7464	2.03	40
4	7505	2.04	0
4	7536	2.05	1
4	7575	2.06	146
4	7608	2.07	0
4	7635	2.08	0
4	7662	2.09	89
4	7693	2.1	18
4	7726	2.11	0
4	7765	2.12	0
4	7810	2.13	0
4	7837	2.14	218
4	7880	2.15	35
4	7929	2.16	0
4	7968	2.17	0
4	8007	2.18	41
4	8036	2.19	0
4	8065	2.2	132
4	8092	2.21	0
4	8117	2.22	29
4	8150	2.23	0
4	8181	2.24	0
4	8220	2.25	7
4	8251	2.26	71
4	8292	2.27	51
4	8329	2.28	0
4	8374	2.29	8
4	8417	2.3	44
4	8462	2.31	106
4	8495	2.32	56
4	8536	2.33	59
4	8565	2.34	23
4	8606	2.35	20
4	8643	2.36	110
4	8672	2.37	0
4	8703	2.38	0
4	8730	2.39	19
4	8767	2.4	0
4	8794	2.41	63
4	8821	2.42	6
4	8852	2.43	13
4	8891	2.44	0
4	8918	2.45	0
4	8959	2.46	0
4	8996	2.47	222
4	9035	2.48	34
4	9070	2.49	63
4	9103	2.5	10
4	9146	2.51	107
4	9181	2.52	6
4	9218	2.53	0
4	9255	2.54	24
4	9276	2.55	0
4	9307	2.56	0
4	9346	2.57	0
4	9395	2.58	0
4	9420	2.59	140
4	9455	2.6	0
4	9498	2.61	0
4	9553	2.62	0
4	9592	2.63	111
4	9631	2.64	66
4	9660	2.65	0
4	9687	2.66	0
4	9730	2.67	78
4	9763	2.68	12
4	9802	2.69	0
4	9833	2.7	0
4	9882	2.71	0
4	9923	2.72	246
4	9956	2.73	53
4	9995	2.74	19
4	10022	2.75	0
4	10055	2.76	9
4	10096	2.77	0
4	10135	2.78	38
4	10180	2.79	14
4	10213	2.8	23
4	10256	2.81	73
4	10295	2.82	0
4	10340	2.83	111
4	10365	2.84	112
4	10398	2.85	0
4	10433	2.86	63
4	10466	2.87	0
4	10509	2.88	64
4	10546	2.89	70
4	10575	2.9	67
4	10624	2.91	0
4	10657	2.92	53
4	10692	2.93	32
4	10727	2.94	2
4	10774	2.95	0
4	10827	2.96	122
4	10868	2.97	0
4	10897	2.98	0
4	10930	2.99	39
4	10965	3	0
4	10990	3.01	0
4	11027	3.02	0
4	11058	3.03	209
4	11093	3.04	0
4	11128	3.05	0
4	11175	3.06	256
4	11214	3.07	151
4	11253	3.08	0
4	11286	3.09	0
4	11333	3.1	0
4	11356	3.11	0
4	11407	3.12	339
4	11436	3.13	17
4	11477	3.14	0
4	11522	3.15	0
4	11553	3.16	199
4	11592	3.17	0
4	11619	3.18	0
4	11658	3.19	38
4	11699	3.2	57
4	11726	3.21	114
4	11759	3.22	0
4	11794	3.23	0
4	11829	3.24	6
4	11860	3.25	0
4	11895	3.26	128
4	11942	3.27	20
4	11977	3.28	0
4	12022	3.29	97
4	12061	3.3	14
4	12102	3.31	72
4	12133	3.32	0
4	12172	3.33	176
4	12221	3.34	0
4	12254	3.35	99
4	12291	3.36	0
4	12320	3.37	0
4	12359	3.38	20
4	12388	3.39	0
4	12419	3.4	100
4	12468	3.41	0
4	12509	3.42	0
4	12536	3.43	166
4	12585	3.44	0
4	12604	3.45	43
4	12635	3.46	0
4	12670	3.47	53
4	12695	3.48	0
4	12734	3.49	65
4	12779	3.5	17
4	12808	3.51	125
4	12845	3.52	8
4	12880	3.53	113
4	12925	3.54	0
4	12962	3.55	89
4	13005	3.56	61
4	13040	3.57	43
4	13073	3.58	55
4	13110	3.59	0
4	13139	3.6	28
4	13176	3.61	61
4	13211	3.62	32
4	13258	3.63	39
4	13287	3.64	0
4	13312	3.65	100
4	13341	3.66	0
4	13380	3.67	0
4	13419	3.68	12
4	13458	3.69	0
4	13493	3.7	79
4	13530	3.71	128
4	13549	3.72	151
4	13590	3.73	0
4	13629	3.74	0
4	13670	3.75	49
4	13715	3.76	90
4	13750	3.77	63
4	13793	3.78	0
4	13832	3.79	0
4	13863	3.8	0
4	13904	3.81	107
4	13945	3.82	0
4	13976	3.83	0
4	14005	3.84	83
4	14044	3.85	81
4	14073	3.86	30
4	14118	3.87	62
4	14157	3.88	111
4	14200	3.89	0
4	14239	3.9	192
4	14274	3.91	41
4	14307	3.92	49
4	14346	3.93	0
4	14373	3.94	258
4	14420	3.95	0
4	14461	3.96	0
4	14496	3.97	0
4	14533	3.98	0
4	14568	3.99	39
4	14609	4	91
4	14646	4.01	0
4	14689	4.02	0
4	14718	4.03	0
4	14747	4.04	59
4	14780	4.05	71
4	14819	4.06	0
4	14874	4.07	31
4	14915	4.08	0
4	14944	4.09	0
4	14989	4.1	119
4	15024	4.11	47
4	15063	4.12	0
4	15092	4.13	51
4	15125	4.14	28
4	15168	4.15	0
4	15207	4.16	0
4	15248	4.17	0
4	15287	4.18	200
4	15340	4.19	0
4	15371	4.2	0
4	15418	4.21	111
4	15463	4.22	137
4	15506	4.23	0
4	15543	4.24	140
4	15586	4.25	66
4	15631	4.26	84
4	15670	4.27	62
4	15703	4.28	136
4	15740	4.29	33
4	15785	4.3	16
4	15832	4.31	0
4	15873	4.32	62
4	15914	4.33	45
4	15951	4.34	13
4	15988	4.35	99
4	16027	4.36	51
4	16066	4.37	46
4	16095	4.38	0
4	16114	4.39	0
4	16145	4.4	0
4	16182	4.41	130
4	16223	4.42	83
4	16258	4.43	0
4	16285	4.44	58
4	16320	4.45	41
4	16347	4.46	132
4	16376	4.47	68
4	16413	4.48	52
4	16458	4.49	0
4	16503	4.5	0
4	16538	4.51	56
4	16577	4.52	0
4	16614	4.53	284
4	16641	4.54	0
4	16672	4.55	0
4	16715	4.56	0
4	16740	4.57	44
4	16789	4.58	0
4	16830	4.59	0
4	16867	4.6	200
4	16902	4.61	0
4	16933	4.62	179
4	16970	4.63	0
4	16995	4.64	81
4	17034	4.65	2
4	17059	4.66	17
4	17090	4.67	28
4	17123	4.68	0
4	17182	4.69	152
4	17215	4.7	103
4	17248	4.71	157
4	17279	4.72	0
4	17316	4.73	0
4	17357	4.74	34
4	17376	4.75	0
4	17415	4.76	0
4	17454	4.77	56
4	17491	4.78	27
4	17522	4.79	0
4	17555	4.8	126
4	17584	4.81	108
4	17625	4.82	0
4	17660	4.83	0
4	17691	4.84	134
4	17722	4.85	0
4	17763	4.86	62
4	17806	4.87	0
4	17841	4.88	205
4	17876	4.89	0
4	17913	4.9	82
4	17940	4.91	48
4	17963	4.92	37
4	18008	4.93	0
4	18045	4.94	0
4	18072	4.95	123
4	18103	4.96	0
4	18140	4.97	52
4	18173	4.98	0
4	18212	4.99	0
4	18247	5	0
4	18292	5.01	0
4	18331	5.02	75
4	18374	5.03	41
4	18425	5.04	0
4	18478	5.05	114
4	18525	5.06	0
4	18554	5.07	0
4	18609	5.08	85
4	18650	5.09	30
4	18683	5.1	29
4	18714	5.11	224
4	18749	5.12	0
4	18784	5.13	0
4	18815	5.14	64
4	18850	5.15	0
4	18883	5.16	3
4	18924	5.17	63
4	18947	5.18	74
4	18986	5.19	1
4	19031	5.2	0
4	19064	5.21	0
4	19095	5.22	0
4	19136	5.23	183
4	19183	5.24	73
4	19220	5.25	59
4	19259	5.26	170
4	19298	5.27	94
4	19335	5.28	0
4	19366	5.29	134
4	19401	5.3	0
4	19438	5.31	53
4	19477	5.32	39
4	19500	5.33	178
4	19551	5.34	67
4	19592	5.35	23
4	19619	5.36	0
4	19654	5.37	0
4	19687	5.38	0
4	19730	5.39	0
4	19755	5.4	0
4	19798	5.41	0
4	19837	5.42	226
4	19884	5.43	21
4	19931	5.44	118
4	19968	5.45	0
4	20001	5.46	42
4	20034	5.47	118
4	20069	5.48	73
4	20104	5.49	28
4	20141	5.5	53
4	20178	5.51	34
4	20217	5.52	15
4	20258	5.53	0
4	20293	5.54	0
4	20322	5.55	2
4	20345	5.56	0
4	20388	5.57	0
4	20427	5.58	24
4	20456	5.59	0
4	20499	5.6	0
4	20534	5.61	82
4	20573	5.62	0
4	20604	5.63	141
4	20645	5.64	100
4	20682	5.65	81
4	20713	5.66	10
4	20746	5.67	0
4	20771	5.68	58
4	20802	5.69	0
4	20849	5.7	4
4	20896	5.71	26
4	20927	5.72	62
4	20958	5.73	0
4	21001	5.74	0
4	21030	5.75	71
4	21057	5.76	28
4	21090	5.77	63
4	21131	5.78	25
4	21166	5.79	14
4	21209	5.8	0
4	21254	5.81	0
4	21293	5.82	0
4	21326	5.83	104
4	21353	5.84	4
4	21380	5.85	84
4	21413	5.86	0
4	21444	5.87	113
4	21471	5.88	71
4	21512	5.89	18
4	21549	5.9	74
4	21584	5.91	108
4	21615	5.92	9
4	21638	5.93	0
4	21677	5.94	29
4	21712	5.95	54
4	21751	5.96	0
4	21776	5.97	111
4	21819	5.98	0
4	21844	5.99	54
4	21875	6	133
4	21912	6.01	183
4	21941	6.02	52
4	21988	6.03	69
4	22023	6.04	177
4	22068	6.05	0
4	22107	6.06	0
4	22142	6.07	69
4	22173	6.08	3
4	22214	6.09	42
4	22257	6.1	34
4	22294	6.11	28
4	22341	6.12	34
4	22380	6.13	45
4	22413	6.14	0
4	22448	6.15	114
4	22479	6.16	0
4	22526	6.17	85
4	22579	6.18	0
4	22614	6.19	244
4	22647	6.2	0
4	22688	6.21	0
4	22711	6.22	56
4	22744	6.23	0
4	22771	6.24	201
4	22810	6.25	318
4	22847	6.26	9
4	22882	6.27	0
4	22915	6.28	0
4	22936	6.29	124
4	22969	6.3	59
4	23010	6.31	0
4	23049	6.32	0
4	23080	6.33	0
4	23117	6.34	141
4	23152	6.35	65
4	23201	6.36	0
4	23236	6.37	49
4	23273	6.38	92
4	23320	6.39	69
4	23359	6.4	0
4	23380	6.41	0
4	23413	6.42	0
4	23448	6.43	0
4	23479	6.44	187
4	23510	6.45	38
4	23553	6.46	67
4	23584	6.47	46
4	23615	6.48	0
4	23652	6.49	26
4	23689	6.5	37
4	23730	6.51	13
4	23755	6.52	121
4	23794	6.53	0
4	23829	6.54	0
4	23862	6.55	134
4	23905	6.56	0
4	23950	6.57	56
4	23991	6.58	42
4	24024	6.59	0
4	24063	6.6	29
4	24106	6.61	73
4	24133	6.62	0
4	24164	6.63	0
4	24185	6.64	0
4	24218	6.65	25
4	24255	6.66	70
4	24296	6.67	99
4	24325	6.68	121
4	24378	6.69	0
4	24407	6.7	69
4	24444	6.71	0
4	24479	6.72	30
4	24512	6.73	17
4	24549	6.74	0
4	24604	6.75	56
4	24641	6.76	0
4	24674	6.77	147
4	24701	6.78	126
4	24734	6.79	0
4	24769	6.8	0
4	24806	6.81	0
4	24837	6.82	19
4	24880	6.83	0
4	24909	6.84	24
4	24944	6.85	0
4	24977	6.86	0
4	25008	6.87	0
4	25041	6.88	0
4	25062	6.89	0
4	25091	6.9	0
4	25126	6.91	0
4	25165	6.92	59
4	25208	6.93	66
4	25235	6.94	11
4	25266	6.95	62
4	25311	6.96	58
4	25348	6.97	79
4	25377	6.98	0
4	25404	6.99	0
4	25445	7	0
4	25482	7.01	142
4	25519	7.02	0
4	25558	7.03	9
4	25589	7.04	0
4	25634	7.05	0
4	25679	7.06	0
4	25716	7.07	28
4	25757	7.08	0
4	25790	7.09	62
4	25839	7.1	0
4	25878	7.11	101
4	25911	7.12	81
4	25948	7.13	0
4	25979	7.14	66
4	26012	7.15	0
4	26039	7.16	42
4	26078	7.17	0
4	26107	7.18	74
4	26142	7.19	30
4	26179	7.2	49
4	26206	7.21	21
4	26253	7.22	54
4	26280	7.23	0
4	26307	7.24	20
4	26352	7.25	0
4	26391	7.26	24
4	26434	7.27	3
4	26475	7.28	42
4	26508	7.29	0
4	26545	7.3	214
4	26576	7.31	41
4	26613	7.32	0
4	26652	7.33	78
4	26697	7.34	15
4	26728	7.35	54
4	26759	7.36	0
4	26800	7.37	109
4	26835	7.38	80
4	26878	7.39	0
4	26913	7.4	213
4	26946	7.41	65
4	26981	7.42	0
4	27010	7.43	138
4	27053	7.44	8
4	27090	7.45	69
4	27123	7.46	26
4	27150	7.47	53
4	27189	7.48	68
4	27226	7.49	109
4	27267	7.5	15
4	27296	7.51	41
4	27327	7.52	0
4	27356	7.53	143
4	27387	7.54	0
4	27424	7.55	55
4	27479	7.56	0
4	27518	7.57	135
4	27571	7.58	0
4	27618	7.59	113
4	27653	7.6	0
4	27682	7.61	0
4	27719	7.62	0
4	27756	7.63	83
4	27805	7.64	333
4	27842	7.65	96
4	27871	7.66	73
4	27910	7.67	0
4	27935	7.68	39
4	27960	7.69	0
4	27987	7.7	44
4	28028	7.71	4
4	28065	7.72	58
4	28104	7.73	27
4	28137	7.74	0
4	28164	7.75	128
4	28209	7.76	0
4	28236	7.77	107
4	28275	7.78	22
4	28302	7.79	0
4	28343	7.8	0
4	28378	7.81	0
4	28407	7.82	0
4	28434	7.83	211
4	28471	7.84	55
4	28510	7.85	0
4	28533	7.86	0
4	28574	7.87	0
4	28615	7.88	0
4	28650	7.89	75
4	28689	7.9	0
4	28720	7.91	93
4	28761	7.92	40
4	28796	7.93	52
4	28835	7.94	37
4	28876	7.95	0
4	28915	7.96	82
4	28950	7.97	0
4	28985	7.98	0
4	29038	7.99	238
4	29085	8	17
4	29126	8.01	0
4	29171	8.02	0
4	29208	8.03	408
4	29243	8.04	0
4	29264	8.05	34
4	29303	8.06	0
4	29344	8.07	0
4	29383	8.08	133
4	29424	8.09	0
4	29467	8.1	85
4	29506	8.11	135
4	29533	8.12	0
4	29568	8.13	0
4	29617	8.14	25
4	29646	8.15	0
4	29683	8.16	79
4	29722	8.17	43
4	29755	8.18	0
4	29790	8.19	0
4	29833	8.2	400
4	29878	8.21	0
4	29907	8.22	0
4	29954	8.23	71
4	30003	8.24	0
4	30040	8.25	85
4	30081	8.26	64
4	30118	8.27	0
4	30151	8.28	106
4	30178	8.29	10
4	30211	8.3	28
4	30260	8.31	0
4	30291	8.32	0
4	30320	8.33	97
4	30353	8.34	0
4	30388	8.35	48
4	30421	8.36	0
4	30460	8.37	124
4	30499	8.38	0
4	30532	8.39	74
4	30577	8.4	85
4	30620	8.41	133
4	30649	8.42	62
4	30680	8.43	0
4	30711	8.44	25
4	30752	8.45	7
4	30785	8.46	67
4	30810	8.47	6
4	30855	8.48	60
4	30888	8.49	14
4	30917	8.5	53
4	30956	8.51	0
4	30989	8.52	39
4	31030	8.53	133
4	31063	8.54	112
4	31108	8.55	54
4	31143	8.56	73
4	31170	8.57	62
4	31193	8.58	74
4	31220	8.59	0
4	31259	8.6	0
4	31288	8.61	10
4	31333	8.62	0
4	31370	8.63	0
4	31409	8.64	48
4	31440	8.65	0
4	31485	8.66	64
4	31518	8.67	0
4	31571	8.68	60
4	31602	8.69	53
4	31639	8.7	65
4	31676	8.71	0
4	31709	8.72	0
4	31740	8.73	61
4	31775	8.74	41
4	31816	8.75	0
4	31855	8.76	15
4	31888	8.77	0
4	31923	8.78	73
4	31972	8.79	99
4	32005	8.8	0
4	32034	8.81	138
4	32065	8.82	0
4	32112	8.83	22
4	32167	8.84	188
4	32192	8.85	41
4	32227	8.86	23
4	32272	8.87	0
4	32313	8.88	110
4	32352	8.89	43
4	32397	8.9	68
4	32424	8.91	0
4	32461	8.92	72
4	32492	8.93	70
4	32523	8.94	0
4	32572	8.95	76
4	32605	8.96	49
4	32624	8.97	0
4	32665	8.98	21
4	32706	8.99	40
4	32747	9	46
4	32786	9.01	22
4	32835	9.02	0
4	32864	9.03	97
4	32891	9.04	64
4	32920	9.05	29
4	32955	9.06	74
4	32990	9.07	0
4	33017	9.08	80
4	33046	9.09	0
4	33093	9.1	0
4	33126	9.11	0
4	33157	9.12	76
4	33206	9.13	27
4	33233	9.14	141
4	33258	9.15	71
4	33287	9.16	0
4	33312	9.17	57
4	33347	9.18	73
4	33378	9.19	157
4	33417	9.2	124
4	33442	9.21	15
4	33477	9.22	0
4	33510	9.23	10
4	33535	9.24	0
4	33566	9.25	148
4	33599	9.26	91
4	33636	9.27	73
4	33675	9.28	0
4	33694	9.29	46
4	33743	9.3	0
4	33776	9.31	70
4	33805	9.32	74
4	33832	9.33	0
4	33863	9.34	27
4	33906	9.35	104
4	33947	9.36	55
4	33988	9.37	57
4	34043	9.38	57
4	34076	9.39	64
4	34113	9.4	96
4	34150	9.41	19
4	34187	9.42	0
4	34232	9.43	192
4	34265	9.44	0
4	34310	9.45	130
4	34353	9.46	0
4	34390	9.47	71
4	34429	9.48	0
4	34480	9.49	68
4	34509	9.5	85
4	34536	9.51	0
4	34563	9.52	54
4	34588	9.53	16
4	34619	9.54	0
4	34646	9.55	0
4	34679	9.56	68
4	34722	9.57	0
4	34771	9.58	0
4	34814	9.59	0
4	34851	9.6	250
4	34890	9.61	22
4	34921	9.62	0
4	34956	9.63	26
4	34997	9.64	92
4	35032	9.65	0
4	35061	9.66	31
4	35098	9.67	0
4	35151	9.68	47
4	35202	9.69	58
4	35243	9.7	0
4	35286	9.71	0
4	35331	9.72	90
4	35370	9.73	43
4	35405	9.74	0
4	35434	9.75	170
4	35459	9.76	0
4	35492	9.77	0
4	35525	9.78	0
4	35556	9.79	4
4	35583	9.8	39
4	35626	9.81	0
4	35665	9.82	60
4	35694	9.83	0
4	35731	9.84	0
4	35766	9.85	126
4	35807	9.86	0
4	35832	9.87	23
4	35861	9.88	0
4	35896	9.89	26
4	35951	9.9	0
4	35976	9.91	0
4	36019	9.92	0
4	36046	9.93	219
4	36079	9.94	0
4	36108	9.95	134
4	36149	9.96	59
4	36188	9.97	47
4	36225	9.98	0
4	36264	9.99	0
4	36295	10	0
5	40	0.01	0
5	65	0.02	26
5	112	0.03	0
5	145	0.04	0
5	180	0.05	49
5	213	0.06	10
5	246	0.07	19
5	289	0.08	75
5	332	0.09	8
5	359	0.1	111
5	388	0.11	0
5	427	0.12	94
5	482	0.13	99
5	529	0.14	50
5	572	0.15	0
5	607	0.16	208
5	640	0.17	60
5	681	0.18	64
5	706	0.19	58
5	739	0.2	0
5	780	0.21	129
5	819	0.22	109
5	848	0.23	55
5	871	0.24	0
5	902	0.25	0
5	939	0.26	32
5	974	0.27	0
5	1017	0.28	12
5	1052	0.29	0
5	1103	0.3	107
5	1138	0.31	47
5	1183	0.32	70
5	1232	0.33	72
5	1275	0.34	0
5	1318	0.35	0
5	1355	0.36	0
5	1394	0.37	137
5	1427	0.38	87
5	1468	0.39	68
5	1497	0.4	0
5	1538	0.41	41
5	1575	0.42	0
5	1612	0.43	77
5	1657	0.44	39
5	1698	0.45	0
5	1735	0.46	0
5	1772	0.47	0
5	1807	0.48	54
5	1838	0.49	123
5	1869	0.5	58
5	1910	0.51	76
5	1947	0.52	68
5	1982	0.53	0
5	2021	0.54	75
5	2060	0.55	73
5	2097	0.56	47
5	2134	0.57	0
5	2163	0.58	0
5	2188	0.59	0
5	2219	0.6	68
5	2270	0.61	34
5	2321	0.62	71
5	2352	0.63	134
5	2389	0.64	64
5	2432	0.65	49
5	2467	0.66	0
5	2490	0.67	195
5	2527	0.68	93
5	2564	0.69	0
5	2599	0.7	141
5	2630	0.71	0
5	2661	0.72	0
5	2686	0.73	103
5	2727	0.74	33
5	2754	0.75	19
5	2783	0.76	40
5	2818	0.77	0
5	2851	0.78	49
5	2896	0.79	0
5	2933	0.8	0
5	2972	0.81	0
5	3019	0.82	193
5	3054	0.83	2
5	3075	0.84	0
5	3108	0.85	0
5	3157	0.86	48
5	3200	0.87	23
5	3225	0.88	85
5	3252	0.89	71
5	3285	0.9	0
5	3328	0.91	0
5	3365	0.92	138
5	3404	0.93	88
5	3435	0.94	0
5	3470	0.95	0
5	3501	0.96	46
5	3530	0.97	75
5	3573	0.98	61
5	3608	0.99	0
5	3649	1	61
5	3690	1.01	47
5	3733	1.02	111
5	3776	1.03	23
5	3801	1.04	71
5	3844	1.05	0
5	3889	1.06	132
5	3930	1.07	63
5	3977	1.08	22
5	4022	1.09	0
5	4061	1.1	122
5	4094	1.11	0
5	4133	1.12	45
5	4162	1.13	0
[...]
12	34390	9.47	0.011462337581001
12	34390	9.47	0.017153696017001
12	34390	9.47	0.019361892449
12	34390	9.47	0.015941944595001
12	34390	9.47	0.018512938353
12	34390	9.47	0.017438492952001
12	34390	9.47	0.024786362007001
12	34390	9.47	0.024716676914
12	34390	9.47	0.016791743415
12	34390	9.47	0.011801722854001
12	34390	9.47	0.011130897540001
12	34390	9.47	0.017983114894001
12	34390	9.47	0.027932701008002
12	34390	9.47	0.027515596920001
12	34390	9.47	0.013465639440001
12	34429	9.48	0.018647173091001
12	34429	9.48	0.015691587157001
12	34429	9.48	0.019113733539001
12	34429	9.48	0.019519511296
12	34429	9.48	0.018672697717001
12	34429	9.48	0.010696628541
12	34429	9.48	0.01748182635
12	34429	9.48	0.017443103970001
12	34429	9.48	0.017696024474001
12	34429	9.48	0.012938476948001
12	34429	9.48	0.012125797633001
12	34429	9.48	0.011295934618001
12	34429	9.48	0.010497747350001
12	34480	9.49	0.017387529383001
12	34480	9.49	0.011327316029
12	34480	9.49	0.016203746016
12	34480	9.49	0.014345681329001
12	34480	9.49	0.018050092683
12	34480	9.49	0.017283787668001
12	34480	9.49	0.015099273041001
12	34480	9.49	0.045869197814
12	34480	9.49	0.043111313954
12	34480	9.49	0.017921732692001
12	34509	9.5	0.010767069976
12	34509	9.5	0.014084577023
12	34509	9.5	0.010306265808
12	34509	9.5	0.010104436569
12	34509	9.5	0.017668338615
12	34509	9.5	0.017194514051001
12	34509	9.5	0.011473714261999
12	34509	9.5	0.026381641926001
12	34509	9.5	0.025909135849
12	34509	9.5	0.011120036367
12	34509	9.5	0.019595265969
12	34509	9.5	0.018693551918
12	34509	9.5	0.018261603809
12	34509	9.5	0.017322380188
12	34509	9.5	0.019339209710001
12	34536	9.51	0.057107826277001
12	34536	9.51	0.053635466856001
12	34536	9.51	0.051855980566
12	34536	9.51	0.032348561546
12	34536	9.51	0.0260721994
12	34536	9.51	0.021677504149
12	34536	9.51	0.017797170556999
12	34536	9.51	0.011723004263001
12	34536	9.51	0.017445451988999
12	34536	9.51	0.011396458854
12	34536	9.51	0.026334735140001
12	34563	9.52	0.061051385386
12	34563	9.52	0.060932019567
12	34563	9.52	0.047696249229
12	34563	9.52	0.045978342848001
12	34563	9.52	0.015974500997
12	34563	9.52	0.014088938961999
12	34563	9.52	0.010075433014
12	34563	9.52	0.011334754192999
12	34563	9.52	0.011082931782999
12	34563	9.52	0.035526111325
12	34563	9.52	0.026401293154001
12	34563	9.52	0.017452789344
12	34563	9.52	0.031363739096999
12	34588	9.53	0.054745227443
12	34588	9.53	0.04782368633
12	34588	9.53	0.044024419229
12	34588	9.53	0.032196187664999
12	34588	9.53	0.026020435766
12	34588	9.53	0.015025962078999
12	34588	9.53	0.016845808648
12	34588	9.53	0.016377256331999
12	34588	9.53	0.033586666052999
12	34588	9.53	0.030531518335
12	34588	9.53	0.014204220793999
12	34588	9.53	0.01902810885
12	34588	9.53	0.017586364968999
12	34588	9.53	0.017222434289
12	34588	9.53	0.039654121516
12	34588	9.53	0.026024725756999
12	34588	9.53	0.014203502546
12	34619	9.54	0.016928494942999
12	34619	9.54	0.012459860607999
12	34619	9.54	0.013257314914
12	34619	9.54	0.018679956773999
12	34619	9.54	0.014160370772998
12	34619	9.54	0.014013642788999
12	34619	9.54	0.015391860689
12	34646	9.55	0.016146824663998
12	34646	9.55	0.011922986922999
12	34646	9.55	0.018550170183
12	34646	9.55	0.017166946382
12	34646	9.55	0.011346348386999
12	34646	9.55	0.010984497389
12	34646	9.55	0.014771108894999
12	34679	9.56	0.012368971473
12	34679	9.56	0.018739720548
12	34679	9.56	0.019057992415
12	34679	9.56	0.026615088055001
12	34679	9.56	0.026400557959001
12	34679	9.56	0.022197452548001
12	34679	9.56	0.019130672743001
12	34679	9.56	0.011140756220001
12	34679	9.56	0.01451639543
12	34679	9.56	0.018699426401001
12	34679	9.56	0.018370585213001
12	34722	9.57	0.017660320042001
12	34722	9.57	0.013621229036
12	34722	9.57	0.01011963491
12	34722	9.57	0.011510001468
12	34722	9.57	0.015185414026
12	34722	9.57	0.011066628810001
12	34722	9.57	0.010342910596
12	34722	9.57	0.019688401306
12	34722	9.57	0.011174761721
12	34722	9.57	0.013545334514001
12	34771	9.58	0.018834461443999
12	34771	9.58	0.013948789292
12	34771	9.58	0.019514291887001
12	34771	9.58	0.013069659443
12	34771	9.58	0.016243878873
12	34771	9.58	0.012428735643001
12	34814	9.59	0.019873806601
12	34814	9.59	0.013037862584
12	34814	9.59	0.012889477696
12	34814	9.59	0.020086132969
12	34814	9.59	0.019848318936001
12	34814	9.59	0.017995638427999
12	34814	9.59	0.021386648766001
12	34814	9.59	0.014426991758
12	34814	9.59	0.012242992861999
12	34814	9.59	0.011173434682
12	34814	9.59	0.024162744489001
12	34814	9.59	0.020422342641
12	34814	9.59	0.028112612775001
12	34814	9.59	0.015656411954
12	34814	9.59	0.022719860238
12	34851	9.6	0.043402866235001
12	34851	9.6	0.033896105379
12	34851	9.6	0.03285259448
12	34851	9.6	0.028426507874
12	34851	9.6	0.022501053806
12	34851	9.6	0.017063205553999
12	34851	9.6	0.02583871861
12	34851	9.6	0.015958018987
12	34851	9.6	0.012539905612
12	34851	9.6	0.011458869638
12	34851	9.6	0.037932651914
12	34851	9.6	0.034149758654999
12	34851	9.6	0.027036349529
12	34851	9.6	0.024294060368
12	34851	9.6	0.015586589929001
12	34851	9.6	0.010989843318001
12	34851	9.6	0.018373325705999
12	34851	9.6	0.012493164044001
12	34851	9.6	0.017398880947999
12	34851	9.6	0.017073817964
12	34851	9.6	0.01435471422
12	34851	9.6	0.024000610292999
12	34890	9.61	0.03932349169
12	34890	9.61	0.034067724862
12	34890	9.61	0.030868838141
12	34890	9.61	0.029902443800999
12	34890	9.61	0.014920755803999
12	34890	9.61	0.018355152770999
12	34890	9.61	0.01865567688
12	34890	9.61	0.010044308296999
12	34890	9.61	0.019017656851
12	34890	9.61	0.016190912138999
12	34890	9.61	0.017212931681
12	34890	9.61	0.016116600486999
12	34890	9.61	0.032680759113999
12	34890	9.61	0.027249192439999
12	34890	9.61	0.018015530571999
12	34921	9.62	0.028439867494999
12	34921	9.62	0.021856143602999
12	34921	9.62	0.017873922153999
12	34921	9.62	0.016629485481999
12	34921	9.62	0.013889098586999
12	34921	9.62	0.012933686540999
12	34921	9.62	0.018572323283999
12	34921	9.62	0.018266984054
12	34921	9.62	0.015602927102
12	34921	9.62	0.014562317876999
12	34921	9.62	0.013131984218999
12	34921	9.62	0.010295562921
12	34921	9.62	0.036643024273999
12	34921	9.62	0.023144783348
12	34921	9.62	0.019082202564999
12	34921	9.62	0.011936473071
12	34921	9.62	0.010103994886999
12	34956	9.63	0.016342610940999
12	34956	9.63	0.01786142876
12	34956	9.63	0.019683257025999
12	34956	9.63	0.013233489425
12	34956	9.63	0.012678045305
12	34956	9.63	0.017178265530999
12	34956	9.63	0.042864873801999
12	34956	9.63	0.042099150254
12	34956	9.63	0.038429918889999
12	34956	9.63	0.029116061264999
12	34956	9.63	0.019829168008
12	34956	9.63	0.016209618070999
12	34956	9.63	0.019647992921
12	34997	9.64	0.015405280744
12	34997	9.64	0.011579456634001
12	34997	9.64	0.01835590852
12	34997	9.64	0.012181966463
12	34997	9.64	0.013559805161
12	34997	9.64	0.01026408211
12	34997	9.64	0.017932307698
12	34997	9.64	0.013247813560001
12	34997	9.64	0.024035476586
12	34997	9.64	0.014140215254001
12	34997	9.64	0.014790218651001
12	34997	9.64	0.010608103080001
12	35032	9.65	0.019066589374001
12	35032	9.65	0.017206531061001
12	35032	9.65	0.014706245938001
12	35032	9.65	0.013797330541001
12	35032	9.65	0.014534352091001
12	35032	9.65	0.011656571464
12	35032	9.65	0.014198095569
12	35032	9.65	0.013049231214001
12	35032	9.65	0.011267043510001
12	35032	9.65	0.019486083292001
12	35032	9.65	0.019056673496001
12	35032	9.65	0.010534632341001
12	35032	9.65	0.022864748022
12	35032	9.65	0.018959004166
12	35032	9.65	0.017723299982
12	35032	9.65	0.013352060593
12	35061	9.66	0.016026326652
12	35061	9.66	0.013176430543
12	35061	9.66	0.019467266247
12	35061	9.66	0.018197444282
12	35061	9.66	0.019065879799001
12	35061	9.66	0.019430829043001
12	35061	9.66	0.016392733558
12	35061	9.66	0.013745608281001
12	35061	9.66	0.012381756962
12	35061	9.66	0.015804691732001
12	35061	9.66	0.01278651124
12	35061	9.66	0.011640243145001
12	35098	9.67	0.010197074878
12	35098	9.67	0.010479010248
12	35098	9.67	0.018018082364
12	35098	9.67	0.018152854741
12	35098	9.67	0.018428916323
12	35098	9.67	0.016044693947
12	35151	9.68	0.019891801061
12	35151	9.68	0.018336238934999
12	35151	9.68	0.012882912181
12	35151	9.68	0.01720062809
12	35151	9.68	0.0137122308
12	35151	9.68	0.011864560595001
12	35151	9.68	0.015477002148
12	35151	9.68	0.013342528900999
12	35151	9.68	0.019407884372001
12	35202	9.69	0.039351490234999
12	35202	9.69	0.038880169404999
12	35202	9.69	0.022344152358
12	35202	9.69	0.017843229954
12	35202	9.69	0.017787924295
12	35202	9.69	0.017055787345999
12	35202	9.69	0.01607543625
12	35202	9.69	0.035159520871
12	35202	9.69	0.028828794327
12	35202	9.69	0.018418513696
12	35202	9.69	0.019431258492
12	35202	9.69	0.011175427535999
12	35243	9.7	0.023850879306
12	35243	9.7	0.014731931572999
12	35243	9.7	0.027606979169999
12	35243	9.7	0.026043951164999
12	35243	9.7	0.017021043091999
12	35243	9.7	0.026326359103999
12	35243	9.7	0.018698618389999
12	35243	9.7	0.014274040685999
12	35243	9.7	0.024590630233
12	35243	9.7	0.023347749022999
12	35243	9.7	0.018421849431
12	35243	9.7	0.017526011044
12	35243	9.7	0.016199617885999
12	35243	9.7	0.011248364112999
12	35243	9.7	0.010265221837999
12	35243	9.7	0.032906655746
12	35243	9.7	0.032787572017
12	35243	9.7	0.028434740062
12	35286	9.71	0.035657309401
12	35286	9.71	0.03451725779
12	35286	9.71	0.035150221195
12	35286	9.71	0.031318667863999
12	35286	9.71	0.020570311537
12	35286	9.71	0.029621250522998
12	35286	9.71	0.024844895686
12	35286	9.71	0.021778598944
12	35331	9.72	0.043331854000002
12	35331	9.72	0.036215287304001
12	35331	9.72	0.035588758944002
12	35331	9.72	0.033469202148002
12	35331	9.72	0.030407082850001
12	35331	9.72	0.036219859828002
12	35331	9.72	0.034778671642
12	35331	9.72	0.025166568733001
12	35331	9.72	0.013386652612001
12	35331	9.72	0.011276619447001
12	35331	9.72	0.020394594408002
12	35331	9.72	0.010826774819002
12	35331	9.72	0.023965736137001
12	35331	9.72	0.022791344811001
12	35331	9.72	0.022646757698
12	35331	9.72	0.046340839037001
12	35331	9.72	0.019470877607001
12	35331	9.72	0.015330937828001
12	35370	9.73	0.036863352864001
12	35370	9.73	0.035778234238
12	35370	9.73	0.034709440229001
12	35370	9.73	0.025993193708
12	35370	9.73	0.015196482718
12	35370	9.73	0.013054545174001
12	35370	9.73	0.012617111609
12	35370	9.73	0.011858961741
12	35370	9.73	0.010807719397
12	35370	9.73	0.018739123673001
12	35370	9.73	0.016046034593
12	35370	9.73	0.036656217940001
12	35405	9.74	0.046649631306
12	35405	9.74	0.043821172398001
12	35405	9.74	0.03702771697
12	35405	9.74	0.034010457058001
12	35405	9.74	0.026565175893001
12	35405	9.74	0.025354543188
12	35405	9.74	0.063954447585001
12	35405	9.74	0.044350285634
12	35405	9.74	0.039859250813
12	35405	9.74	0.03894913171
12	35405	9.74	0.034882467452
12	35405	9.74	0.030397783150001
12	35405	9.74	0.031462271312
12	35405	9.74	0.024916222362
12	35405	9.74	0.011726142374
12	35405	9.74	0.023979742454001
12	35405	9.74	0.023528980852001
12	35405	9.74	0.051756093833001
12	35405	9.74	0.047081153553
12	35434	9.75	0.028218964164001
12	35434	9.75	0.023464160105
12	35434	9.75	0.02221959479
12	35434	9.75	0.019386244441
12	35434	9.75	0.018919437735001
12	35434	9.75	0.015924082469001
12	35434	9.75	0.014204051441
12	35434	9.75	0.010866250857001
12	35434	9.75	0.025655368294
12	35434	9.75	0.020374474903001
12	35434	9.75	0.014595690979
12	35434	9.75	0.012587496795
12	35434	9.75	0.034830279129
12	35434	9.75	0.028578117586001
12	35434	9.75	0.028517404076
12	35434	9.75	0.027160296944
12	35434	9.75	0.02658018959
12	35434	9.75	0.052770070073
12	35434	9.75	0.051419224116
12	35434	9.75	0.042016865628
12	35434	9.75	0.038435812697999
12	35459	9.76	0.019454339906
12	35459	9.76	0.014912189934
12	35459	9.76	0.011427292504999
12	35459	9.76	0.021054752494999
12	35459	9.76	0.017595291461999
12	35459	9.76	0.010899601507999
12	35459	9.76	0.028558426788001
12	35459	9.76	0.053966555140001
12	35459	9.76	0.053409903556
12	35459	9.76	0.039453838272999
12	35459	9.76	0.037528559325001
12	35459	9.76	0.033196261059
12	35459	9.76	0.027496801546
12	35459	9.76	0.025883888089
12	35492	9.77	0.022649032721
12	35492	9.77	0.029994099648
12	35492	9.77	0.023727529162
12	35492	9.77	0.018424410395999
12	35492	9.77	0.013196897137
12	35492	9.77	0.056757993847
12	35492	9.77	0.054343470975999
12	35492	9.77	0.053493809076
12	35492	9.77	0.041064150232
12	35492	9.77	0.035285724832001
12	35492	9.77	0.013958211772
12	35492	9.77	0.013854170023
12	35492	9.77	0.013893182648999
12	35492	9.77	0.013008261868
12	35492	9.77	0.026189959956
12	35525	9.78	0.017956737452
12	35525	9.78	0.011365182391
12	35525	9.78	0.021464828034999
12	35525	9.78	0.019066247237999
12	35525	9.78	0.014278807368999
12	35525	9.78	0.010301220574
12	35525	9.78	0.011155694868
12	35525	9.78	0.017840747465
12	35525	9.78	0.010363672293
12	35525	9.78	0.019763534781999
12	35556	9.79	0.018023869737
12	35556	9.79	0.015909641625999
12	35556	9.79	0.012926816939999
12	35556	9.79	0.016689911154
12	35556	9.79	0.017421999109999
12	35556	9.79	0.014549020801999
12	35556	9.79	0.014443774194
12	35556	9.79	0.013613728216999
12	35556	9.79	0.011125569069
12	35556	9.79	0.014538324297
12	35583	9.8	0.018616616638999
12	35583	9.8	0.017375132685999
12	35583	9.8	0.012049805448999
12	35583	9.8	0.012925929288999
12	35583	9.8	0.016659511066999
12	35583	9.8	0.013469818737999
12	35583	9.8	0.017868822498999
12	35583	9.8	0.016602057741999
12	35583	9.8	0.038697748688
12	35583	9.8	0.035825859730998
12	35583	9.8	0.013813689204
12	35583	9.8	0.024367817913999
12	35583	9.8	0.015370637967999
12	35626	9.81	0.011967887377001
12	35626	9.81	0.010355935142
12	35626	9.81	0.018139878519001
12	35626	9.81	0.012523774952001
12	35626	9.81	0.019203549472001
12	35626	9.81	0.019086073425001
12	35626	9.81	0.013003849581001
12	35626	9.81	0.013641011491
12	35665	9.82	0.018080420373
12	35665	9.82	0.014959031093001
12	35665	9.82	0.016340544759
12	35665	9.82	0.019923787557001
12	35665	9.82	0.017331029924
12	35665	9.82	0.016645348527
12	35694	9.83	0.027227741546
12	35694	9.83	0.018172782805999
12	35694	9.83	0.016250744288
12	35694	9.83	0.013582352034
12	35694	9.83	0.029660072859
12	35694	9.83	0.027646442183
12	35694	9.83	0.022670933901001
12	35694	9.83	0.016620611074
12	35694	9.83	0.01438551649
12	35694	9.83	0.017187666578
12	35694	9.83	0.028732011333
12	35694	9.83	0.023089015629001
12	35694	9.83	0.016864105454999
12	35694	9.83	0.018303529367
12	35694	9.83	0.016879237722
12	35694	9.83	0.013478645543
12	35694	9.83	0.021782192644
12	35694	9.83	0.021503149634
12	35694	9.83	0.026117570066001
12	35694	9.83	0.022640684845001
12	35694	9.83	0.014960492153
12	35694	9.83	0.012495915037
12	35694	9.83	0.017998533555
12	35694	9.83	0.010877383239
12	35731	9.84	0.01177704767
12	35731	9.84	0.018820908303001
12	35731	9.84	0.015798897087
12	35731	9.84	0.018760899974
12	35731	9.84	0.016981139434
12	35731	9.84	0.011702956508
12	35731	9.84	0.017842219683001
12	35731	9.84	0.017436405224
12	35731	9.84	0.018680692808999
12	35766	9.85	0.015657012087999
12	35766	9.85	0.010457086051
12	35766	9.85	0.010516839193
12	35766	9.85	0.018542879767001
12	35766	9.85	0.015010607051
12	35766	9.85	0.012591643283999
12	35766	9.85	0.019158627141
12	35766	9.85	0.016603701115999
12	35766	9.85	0.015920439187999
12	35807	9.86	0.023199631722999
12	35807	9.86	0.020081296582999
12	35807	9.86	0.013598910796
12	35807	9.86	0.016603233945
12	35807	9.86	0.015768865204
12	35807	9.86	0.013194514814
12	35807	9.86	0.012589161972
12	35807	9.86	0.019938419279999
12	35807	9.86	0.019911022295
12	35807	9.86	0.024824146798
12	35807	9.86	0.012360726058999
12	35807	9.86	0.015187857527
12	35807	9.86	0.028635039940999
12	35807	9.86	0.016489001388999
12	35807	9.86	0.019494667451999
12	35832	9.87	0.013230005186999
12	35832	9.87	0.019605003480999
12	35832	9.87	0.015479458382
12	35832	9.87	0.012698447928999
12	35832	9.87	0.013734348161
12	35832	9.87	0.012318830468999
12	35832	9.87	0.016952554228
12	35861	9.88	0.014633593251999
12	35861	9.88	0.012654205199999
12	35861	9.88	0.02188989349
12	35861	9.88	0.020652570418999
12	35861	9.88	0.015392387617998
12	35861	9.88	0.013716817893
12	35861	9.88	0.013336071115999
12	35861	9.88	0.020766898532999
12	35861	9.88	0.032072044951999
12	35861	9.88	0.029891288223999
12	35861	9.88	0.028844886650999
12	35861	9.88	0.028671942347
12	35861	9.88	0.027119138915999
12	35896	9.89	0.010427134749001
12	35896	9.89	0.018682851565
12	35896	9.89	0.011620006753001
12	35896	9.89	0.010555342150001
12	35896	9.89	0.019593349320001
12	35896	9.89	0.032050349924001
12	35896	9.89	0.029987372495
12	35896	9.89	0.010513697627001
12	35896	9.89	0.016745964436002
12	35896	9.89	0.012990531298001
12	35896	9.89	0.010550730281
12	35951	9.9	0.019909736243001
12	35951	9.9	0.019962979644001
12	35951	9.9	0.019673691552001
12	35951	9.9	0.017664075489
12	35951	9.9	0.018512928995001
12	35951	9.9	0.016259511483
12	35951	9.9	0.039176219905
12	35951	9.9	0.018950089943001
12	35951	9.9	0.018343895685
12	35951	9.9	0.017480927054001
12	35951	9.9	0.019954662493001
12	35951	9.9	0.012043117355001
12	35951	9.9	0.010156985824
12	35976	9.91	0.014098785949001
12	35976	9.91	0.013354915432
12	35976	9.91	0.011024100790999
12	35976	9.91	0.014558763427001
12	35976	9.91	0.017762729112
12	35976	9.91	0.010809933943001
12	35976	9.91	0.01458606247
12	35976	9.91	0.019155881398
12	35976	9.91	0.019907683857001
12	35976	9.91	0.017584290321
12	35976	9.91	0.014938809854
12	35976	9.91	0.012937651286
12	35976	9.91	0.01067073704
12	36019	9.92	0.023398679916999
12	36019	9.92	0.023180202213
12	36019	9.92	0.013991925349
12	36019	9.92	0.014301595974
12	36019	9.92	0.017012861592001
12	36019	9.92	0.016918301456
12	36019	9.92	0.015156690857999
12	36019	9.92	0.010867701978
12	36019	9.92	0.024127920114999
12	36019	9.92	0.020189371554
12	36046	9.93	0.037699069752
12	36046	9.93	0.037224853869001
12	36046	9.93	0.036917345387
12	36046	9.93	0.019949841329
12	36046	9.93	0.017466996432001
12	36046	9.93	0.012961006694001
12	36046	9.93	0.018900238621001
12	36046	9.93	0.010210649275001
12	36046	9.93	0.014636984193
12	36046	9.93	0.014289512288
12	36046	9.93	0.013836760785999
12	36046	9.93	0.013484943466
12	36046	9.93	0.018966532687999
12	36046	9.93	0.013628450069
12	36046	9.93	0.010274838199001
12	36046	9.93	0.017559486816999
12	36046	9.93	0.016784964691
12	36079	9.94	0.046002879626
12	36079	9.94	0.041654995548999
12	36079	9.94	0.01314538043
12	36079	9.94	0.03902289302
12	36079	9.94	0.010589570177
12	36079	9.94	0.016691492474999
12	36079	9.94	0.010337885599
12	36079	9.94	0.029760678077
12	36079	9.94	0.022371016974001
12	36079	9.94	0.015971863231
12	36079	9.94	0.014893628768
12	36079	9.94	0.011935830440001
12	36108	9.95	0.019541900072999
12	36108	9.95	0.017070056225
12	36108	9.95	0.013478248365999
12	36108	9.95	0.012523140578999
12	36108	9.95	0.011301613156
12	36108	9.95	0.016914738075
12	36108	9.95	0.015556692142999
12	36108	9.95	0.023966416899
12	36108	9.95	0.013030701721
12	36108	9.95	0.015522674810999
12	36108	9.95	0.012367650133999
12	36108	9.95	0.012147549199
12	36149	9.96	0.013291647658999
12	36149	9.96	0.012672274692999
12	36149	9.96	0.012147838061999
12	36149	9.96	0.010409593897998
12	36149	9.96	0.014971046372999
12	36149	9.96	0.012133414578999
12	36149	9.96	0.013054496934
12	36149	9.96	0.016229964461999
12	36188	9.97	0.011989830135001
12	36188	9.97	0.018283634729
12	36188	9.97	0.010348710570002
12	36188	9.97	0.014660544373001
12	36188	9.97	0.022516277104002
12	36225	9.98	0.028454175521
12	36225	9.98	0.027334822217
12	36225	9.98	0.019936875183001
12	36225	9.98	0.027642031261001
12	36225	9.98	0.026555685701
12	36225	9.98	0.020200777428
12	36225	9.98	0.018123704469001
12	36225	9.98	0.028981962379001
12	36264	9.99	0.017590137784
12	36264	9.99	0.015850854785
12	36264	9.99	0.01180343417
12	36264	9.99	0.030016098566
12	36264	9.99	0.025704179548001
12	36264	9.99	0.011987631809001
12	36264	9.99	0.024111286390001
12	36264	9.99	0.010883037294001
12	36295	10	0.035792719947001
12	36295	10	0.028220941203999
12	36295	10	0.042437564556
12	36295	10	0.020144119674001
12	36295	10	0.019685807090001
12	36295	10	0.016357971322
12	36295	10	0.016185693302001
12	36295	10	0.047504598329001
12	36295	10	0.041416192673001

