version 2
run General-0-20200123-15:18:26-57028
attr configname General
attr datetime 20200123-15:18:26
attr experiment General
attr inifile omnetpp.ini
attr iterationvars ""
attr iterationvarsf ""
attr measurement ""
attr network CellularNetwork
attr processid 57028
attr repetition 0
attr replication #0
attr resultdir results
attr runnumber 0
attr seedset 0
param **.nUsers 10
param **.antenna.timeslot 1ms
param **.antenna.lambda 0.08s

vector 0 CellularNetwork.antenna responseTime:vector ETV
attr source responseTime
vector 1 CellularNetwork.antenna throughput:vector ETV
attr source throughput
vector 2 CellularNetwork.antenna NumServedUser:vector ETV
attr source NumServedUser
vector 3 CellularNetwork.antenna tptUser-0:vector ETV
vector 4 CellularNetwork.antenna tptUser-1:vector ETV
vector 5 CellularNetwork.antenna tptUser-2:vector ETV
vector 6 CellularNetwork.antenna tptUser-3:vector ETV
vector 7 CellularNetwork.antenna tptUser-4:vector ETV
vector 8 CellularNetwork.antenna tptUser-5:vector ETV
vector 9 CellularNetwork.antenna tptUser-6:vector ETV
vector 10 CellularNetwork.antenna tptUser-7:vector ETV
vector 11 CellularNetwork.antenna tptUser-8:vector ETV
vector 12 CellularNetwork.antenna tptUser-9:vector ETV
0	12	0.001	0.001
0	12	0.001	0.001
0	12	0.001	0.001
0	12	0.001	0.001
0	12	0.001	0.001
0	12	0.001	0.001
0	12	0.001	0.001
0	12	0.001	0.001
0	23	0.002	0.002
0	79	0.007	0.001131964963
0	136	0.012	0.001652459081
0	147	0.013	0.00113838051
0	269	0.024	0.001402336589
0	303	0.027	0.00108399829
0	326	0.029	0.001498767336
0	515	0.046	0.001504927692
0	560	0.05	0.001277814278
0	583	0.052	0.001709132845
0	663	0.059	0.001796776211
0	741	0.066	0.001977408729
0	776	0.069	0.001610417342
0	1086	0.097	0.001776559714
0	1120	0.1	0.001479372381
0	1209	0.108	0.001969666963
0	1276	0.114	0.001687687432
0	1476	0.132	0.001831852512
0	1499	0.134	0.001889922077
0	1644	0.147	0.001759893148
0	1655	0.148	0.001418957692
0	1711	0.153	0.001820053889
0	1811	0.162	0.00168755266
0	1977	0.177	0.001812422422
0	2011	0.18	0.001245532299
0	2067	0.185	0.001191307117
0	2113	0.189	0.001837041582
0	2124	0.19	0.001255467435
0	2268	0.203	0.001506129638
0	2369	0.212	0.001518343555
0	2369	0.212	0.001289526299
0	2436	0.218	0.001572794457
0	2459	0.22	0.001907107895
0	2592	0.232	0.001922279094
0	2659	0.238	0.0015716516
0	2737	0.245	0.001870601726
0	2793	0.25	0.001754526113
0	2882	0.258	0.001068020147
0	2993	0.268	0.001407104227
0	3060	0.274	0.001835094077
0	3182	0.285	0.001746916905
0	3216	0.288	0.001803438027
0	3261	0.292	0.001579321351
0	3285	0.294	0.001757124243
0	3297	0.295	0.001987338568
0	3308	0.296	0.001320942818
0	3652	0.327	0.001525355464
0	3917	0.351	0.00117683353
0	3995	0.358	0.001045652522
0	4084	0.366	0.00162584228
0	4305	0.386	0.001643107871
0	4383	0.393	0.001191651569
0	4759	0.427	0.001911484148
0	4804	0.431	0.001207202533
0	4838	0.434	0.001171489887
0	4894	0.439	0.001521246361
0	5171	0.464	0.001904108878
0	5282	0.474	0.001490759128
0	5470	0.491	0.001636753576
0	5493	0.493	0.001765635937
0	5681	0.51	0.001591956027
0	5716	0.513	0.001368629682
0	5728	0.514	0.001366339216
0	5739	0.515	0.001090940465
0	5784	0.519	0.001402262238
0	5995	0.538	0.001669995293
0	6018	0.54	0.001235384898
0	6185	0.555	0.0016284997479999
0	6275	0.563	0.0017521614189999
0	6286	0.564	0.0018844084699999
0	6310	0.566	0.001460481908
0	6333	0.568	0.001633902083
0	6466	0.58	0.0011826490619999
0	6632	0.595	0.001960065713
0	6732	0.604	0.00167563225
0	6766	0.607	0.001513841927
0	6833	0.613	0.001418471998
0	7011	0.629	0.001086171388
0	7022	0.63	0.00161971306
0	7090	0.636	0.0018319390670001
0	7101	0.637	0.0018604526680001
0	7179	0.644	0.001025508009
0	7225	0.648	0.001225357168
0	7225	0.648	0.001932147637
0	7248	0.65	0.001753996453
0	7305	0.655	0.0018709781940001
0	7328	0.657	0.001452344131
0	7384	0.662	0.001916368203
0	7781	0.698	0.0019409094239999
0	7849	0.704	0.0012194722569999
0	7860	0.705	0.0012026448519999
0	7883	0.707	0.0010033297359999
0	8038	0.721	0.001289704298
0	8116	0.728	0.001582941674
0	8161	0.732	0.001753777057
0	8184	0.734	0.001944847636
0	8362	0.75	0.001469567736
0	8506	0.763	0.00113337397
0	8584	0.77	0.0013890733390001
0	8773	0.787	0.0010482618200001
0	8862	0.795	0.0010965590049999
0	8951	0.803	0.0018251645139999
0	9106	0.817	0.0011342721499999
0	9152	0.821	0.001825367971
0	9163	0.822	0.001605760383
0	9219	0.827	0.001461435431
0	9498	0.852	0.001286240162
0	9566	0.858	0.001953452895
0	9566	0.858	0.001146958793
0	9633	0.864	0.001581911535
0	9711	0.871	0.001786073967
0	9746	0.874	0.001337551094
0	9746	0.874	0.0010491723230001
0	9769	0.876	0.001621211456
0	9826	0.881	0.0016203890550001
0	9849	0.883	0.0015107135760001
0	9949	0.892	0.0018161729930001
0	9983	0.895	0.001788298658
0	10171	0.912	0.001610539704
0	10359	0.929	0.001929929061
0	10547	0.946	0.001226234251
0	10570	0.948	0.001467540821
0	10637	0.954	0.001922156382
0	10671	0.957	0.001179367182
0	10739	0.963	0.001153008684
0	10762	0.965	0.001675085918
0	10807	0.969	0.001972329433
0	10930	0.98	0.00118227516
0	10942	0.981	0.00140385658
0	10953	0.982	0.001795470803
0	10998	0.986	0.001540000135
0	11034	0.989	0.0013388461980001
0	11045	0.99	0.001965739761
0	11123	0.997	0.001463940531
0	11146	0.999	0.001082279111
0	11169	1.001	0.0012911477949999
0	11236	1.007	0.001888239893
0	11314	1.014	0.0018217871899999
0	11755	1.054	0.001873390156
0	11998	1.076	0.0014138611100001
0	12109	1.086	0.0018863496060002
0	12198	1.094	0.0012489608720001
0	12321	1.105	0.0012630809650001
0	12399	1.112	0.0014983616469999
0	12510	1.122	0.001976787674
0	12599	1.13	0.001753385637
0	12688	1.138	0.0011140266379999
0	12744	1.143	0.001230317381
0	12888	1.156	0.0012651058449999
0	12956	1.162	0.0019153028809999
0	13298	1.193	0.0019930207510002
0	13497	1.211	0.0014733316670001
0	13531	1.214	0.0015642611710001
0	13862	1.244	0.001197886376
0	13907	1.248	0.0011108308159999
0	14040	1.26	0.001601593477
0	14118	1.267	0.0016669059559999
0	14317	1.285	0.0019099654899999
0	14725	1.322	0.0019962184720002
0	14826	1.331	0.0018931767779999
0	14992	1.346	0.0012201008479999
0	15048	1.351	0.0013221206309999
0	15082	1.354	0.0019562124669998
0	15116	1.357	0.0012333558519999
0	15139	1.359	0.001808247871
0	15228	1.367	0.0015784508480001
0	15328	1.376	0.0013178896889998
0	15406	1.383	0.0017710917190001
0	15517	1.393	0.001255273615
0	15639	1.404	0.0014774026519999
0	15795	1.418	0.001568289662
0	15818	1.42	0.0011694254629999
0	15841	1.422	0.0013376349309999
0	16095	1.445	0.0017546235250001
0	16129	1.448	0.001214795816
0	16317	1.465	0.0015296827940001
0	16494	1.481	0.0016603355779998
0	16671	1.497	0.0017815016959999
0	16749	1.504	0.0012550304880001
0	16794	1.508	0.0017472990230001
0	16949	1.522	0.0014185135490001
0	17016	1.528	0.0017798237990001
0	17062	1.532	0.00196340613
0	17119	1.537	0.001284073151
0	17130	1.538	0.0010906604950001
0	17375	1.56	0.001397393657
0	17375	1.56	0.001611277586
0	17387	1.561	0.0010562850010001
0	17398	1.562	0.0012378106050002
0	17619	1.582	0.001567223346
0	17730	1.592	0.0019889522449998
0	17786	1.597	0.001465248018
0	17897	1.607	0.0013842811510001
0	17920	1.609	0.001798817759
0	17965	1.613	0.00126630377
0	18010	1.617	0.001081961221
0	18132	1.628	0.0017991474799999
0	18166	1.631	0.0019301903360001
0	18200	1.634	0.0017545385309998
0	18333	1.646	0.0013781224989999
0	18378	1.65	0.0016322294060001
0	18622	1.672	0.0013184144759999
0	18667	1.676	0.001289953646
0	18757	1.684	0.001542775478
0	18857	1.693	0.0018600612490001
0	18936	1.7	0.0015029907640001
0	19014	1.707	0.0018438384150001
0	19038	1.709	0.001027788462
0	19049	1.71	0.00163474398
0	19193	1.723	0.0013024478349999
0	19315	1.734	0.0012539704800001
0	19360	1.738	0.001363381987
0	19460	1.747	0.001598415473
0	19483	1.749	0.0015999736469998
0	19627	1.762	0.001870701718
0	19959	1.792	0.0019245946140001
0	20016	1.797	0.0016998236770001
0	20027	1.798	0.001903304854
0	20083	1.803	0.0018827689050001
0	20128	1.807	0.0011255688880001
0	20250	1.818	0.0010160103000001
0	20306	1.823	0.0018678485270001
0	20329	1.825	0.001095437776
0	20629	1.852	0.0017504406039999
0	20653	1.854	0.0013704470409999
0	20664	1.855	0.001552447748
0	21039	1.889	0.001427227317
0	21205	1.904	0.001517628192
0	22045	1.98	0.00154826395
0	22167	1.991	0.0016179620779999
0	22257	1.999	0.0010227596979999
0	22268	2	0.0018932245909999
0	22610	2.031	0.0016574134650003
0	22633	2.033	0.0015684929359998
0	22689	2.038	0.0012197501489997
0	22977	2.064	0.0014154597439999
0	23176	2.082	0.0011688577240001
0	23353	2.098	0.001698241758
0	23486	2.11	0.0016712688360001
0	23751	2.134	0.00176393488
0	24170	2.172	0.0018786466640002
0	24193	2.174	0.001019824793
0	24238	2.178	0.0013080845440001
0	24272	2.181	0.0012125669070002
0	24317	2.185	0.0011174272410002
0	24605	2.211	0.0017955759019999
0	24683	2.218	0.0015716353530002
0	24860	2.234	0.00182125183
0	25247	2.269	0.001229764778
0	25292	2.273	0.0013221936980004
0	25337	2.277	0.0012546270910003
0	25405	2.283	0.0010023861490001
0	25416	2.284	0.0012001604889997
0	25472	2.289	0.0012383501500004
0	25750	2.314	0.0010710404159999
0	25761	2.315	0.0018883215210002
0	25761	2.315	0.001665720613
0	25960	2.333	0.0017979335209999
0	26083	2.344	0.0012076750380001
0	26094	2.345	0.0011468218589998
0	26239	2.358	0.0018533644780003
0	26239	2.358	0.0015503958480001
0	26306	2.364	0.0011725096139998
0	26407	2.373	0.001350061668
0	26705	2.4	0.0012268829509998
0	26926	2.42	0.0016528065500001
0	27312	2.455	0.001229050274
0	27335	2.457	0.0019811240380001
0	27413	2.464	0.001474072488
0	27535	2.475	0.0016341316080002
0	27570	2.478	0.0011003822819999
0	27570	2.478	0.0015593984279998
0	27593	2.48	0.0015116507039998
0	27627	2.483	0.0018820186220001
0	27738	2.493	0.0018306813489999
0	27761	2.495	0.0011491100670002
0	27784	2.497	0.0016191282899998
0	27840	2.502	0.0018737252289998
0	27918	2.509	0.0016916254399999
0	28084	2.524	0.0016352596930003
0	28118	2.527	0.0011490456530003
0	28361	2.549	0.0013585291329998
0	28384	2.551	0.0015677671080003
0	28418	2.554	0.0011745227289999
0	28826	2.591	0.0011479907249998
0	28849	2.593	0.0010792417140002
0	28938	2.601	0.0013467749689999
0	29027	2.609	0.0016610886290001
0	29094	2.615	0.0015787841199999
0	29139	2.619	0.0013433046299998
0	29239	2.628	0.0011985440190001
0	29449	2.647	0.0018700229219997
0	29494	2.651	0.0014903538129998
0	29959	2.693	0.0018474058720002
0	30247	2.719	0.0016454197919997
0	30247	2.719	0.001604246361
0	30479	2.74	0.001584299074
0	30601	2.751	0.0011662513229997
0	30624	2.753	0.0017799136460002
0	30669	2.757	0.0014205768800002
0	30726	2.762	0.0017536865840002
0	30750	2.764	0.0015202624599997
0	30761	2.765	0.0013848291460001
0	31004	2.787	0.0016846450779999
0	31126	2.798	0.0019999369520001
0	31282	2.812	0.0013034392689999
0	31293	2.813	0.0011401509
0	31427	2.825	0.0013218367799999
0	31438	2.826	0.0011729999060002
0	31529	2.834	0.0013883669029999
0	31529	2.834	0.0011440375860001
0	31540	2.835	0.0013615501239999
0	31750	2.854	0.001374763407
0	32037	2.88	0.0011452319109999
0	32082	2.884	0.0017518352970001
0	32127	2.888	0.0017576330060001
0	32150	2.89	0.0012222021530004
0	32449	2.917	0.0016789884609998
0	32759	2.945	0.00123303678
0	32770	2.946	0.0019110730179999
0	32805	2.949	0.0011858878349997
0	32828	2.951	0.001398401161
0	32896	2.957	0.0012437723629999
0	33051	2.971	0.0012773953140002
0	33228	2.987	0.0017677863230001
0	33252	2.989	0.001303177494
0	33263	2.99	0.0018771576329999
0	33297	2.993	0.0019465623529999
0	33375	3	0.0012060071139999
0	33442	3.006	0.0013534611489998
0	33784	3.037	0.0011372493490001
0	33895	3.047	0.0011197950450001
0	33951	3.052	0.0013625388260001
0	34085	3.064	0.0017914324620003
0	34351	3.088	0.001440177713
0	34362	3.089	0.0015924518729999
0	34420	3.094	0.0012864288559999
0	34431	3.095	0.001307077816
0	34431	3.095	0.0010363738539998
0	34498	3.101	0.001892107752
0	34521	3.103	0.001226637582
0	34588	3.109	0.0016284920779999
0	34721	3.121	0.0014149975330002
0	34887	3.136	0.0010535528260003
0	34998	3.146	0.0011389921679998
0	35065	3.152	0.0014579774500003
0	35143	3.159	0.0011285136799999
0	35222	3.166	0.0017620775210001
0	35222	3.166	0.0018162120779999
0	35245	3.168	0.0011951565020003
0	35367	3.179	0.0017666593149999
0	35435	3.185	0.0014807347390002
0	35435	3.185	0.0016647898910001
0	35557	3.196	0.0019071767459997
0	35613	3.201	0.0012357796680003
0	35736	3.212	0.0015802159799998
0	35814	3.219	0.0016981572170001
0	35914	3.228	0.0018494711019996
0	36124	3.247	0.0013690308239998
0	36346	3.267	0.0014824041230002
0	36446	3.276	0.0017267546569997
0	36492	3.28	0.0014812374690001
0	36503	3.281	0.0012506736070002
0	36659	3.295	0.0017043102969998
0	36670	3.296	0.0019820692570001
0	36693	3.298	0.0018160854590001
0	36815	3.309	0.0012957828229996
0	36838	3.311	0.0011892925970001
0	36861	3.313	0.0014061025979997
0	37028	3.328	0.001024637984
0	37107	3.335	0.0010862873519999
0	37107	3.335	0.0015129657220001
0	37185	3.342	0.0017318360950003
0	37208	3.344	0.0012184280129999
0	37231	3.346	0.0018650296880001
0	37342	3.356	0.0018678323239998
0	37367	3.358	0.0011094927370001
0	37378	3.359	0.0010824894530002
0	37378	3.359	0.001022825592
0	37468	3.367	0.001737536467
0	37468	3.367	0.0019493715299999
0	37491	3.369	0.0014869518239999
0	37668	3.385	0.0013361290230001
0	37702	3.388	0.00131674479
0	37858	3.402	0.0011280470400004
0	37926	3.408	0.0016294773149998
0	37960	3.411	0.0014141204360003
0	38049	3.419	0.0019623751490001
0	38083	3.422	0.0014999400890003
0	38294	3.441	0.0011621250510001
0	38570	3.466	0.0015589559689997
0	38813	3.488	0.0019114027490001
0	38869	3.493	0.0010977555879998
0	38914	3.497	0.0013055840840002
0	39014	3.506	0.0018895098889997
0	39092	3.513	0.0013572491449998
0	39336	3.535	0.0017699753420004
0	39458	3.546	0.001368174864
0	39525	3.552	0.0015866265370001
0	39570	3.556	0.001015556514
0	39660	3.564	0.0015110699730001
0	39705	3.568	0.001485770191
0	39739	3.571	0.001378846807
0	39894	3.585	0.0018391576229999
0	39972	3.592	0.0018284641770001
0	39995	3.594	0.001070587144
0	40238	3.616	0.0012710602860002
0	40272	3.619	0.0016620341099998
0	40306	3.622	0.0014043136240001
0	40594	3.648	0.0010096548600003
0	40605	3.649	0.0019713404449999
0	40705	3.658	0.0010170112329999
0	40860	3.672	0.0016252692869996
0	40883	3.674	0.0011836660200002
0	40906	3.676	0.0017700144069996
0	40995	3.684	0.001065829266
0	41063	3.69	0.001450016847
0	41086	3.692	0.0014225177179998
0	41164	3.699	0.0014558486479999
0	41221	3.704	0.0014941073129999
0	41221	3.704	0.0010046854619996
0	41245	3.706	0.001480926598
0	41256	3.707	0.001058930663
0	41390	3.719	0.0013657725739997
0	41390	3.719	0.0010237271449998
0	41490	3.728	0.0015435171589999
0	41579	3.736	0.001411329927
0	41723	3.749	0.0012788468990004
0	41746	3.751	0.0018976505750001
0	41769	3.753	0.0017675675080002
0	41826	3.758	0.0016863026
0	41938	3.768	0.0017662238280001
0	41994	3.773	0.0019116680170002
0	42050	3.778	0.001906771761
0	42139	3.786	0.0017564779049999
0	42206	3.792	0.0016512271360001
0	42251	3.796	0.0011509503519997
0	42318	3.802	0.001792510319
0	42759	3.842	0.0015293063100001
0	42782	3.844	0.0010525444759999
0	42816	3.847	0.001329516877
0	42927	3.857	0.001134887619
0	43027	3.866	0.0011457286170002
0	43182	3.88	0.001743128213
0	43493	3.908	0.001340875231
0	43493	3.908	0.001992101356
0	43672	3.924	0.0014798766970001
0	43683	3.925	0.0019360714359999
0	43717	3.928	0.0014976657079999
0	43850	3.94	0.001452871088
0	44137	3.966	0.0017724598919999
0	44413	3.991	0.0016678151990002
0	44898	4.035	0.0011131033080005
0	44998	4.044	0.0011722717409999
0	45142	4.057	0.0015674587579992
0	45187	4.061	0.001054589093
0	45409	4.081	0.0015077163589998
0	45432	4.083	0.0011181467250001
0	45533	4.092	0.0019374262309997
0	45544	4.093	0.0014736855540001
0	45633	4.101	0.0010882294950001
0	45744	4.111	0.0014553428849995
0	45866	4.122	0.0011831195659999
0	45911	4.126	0.0011921398800006
0	45934	4.128	0.0014708150620004
0	45957	4.13	0.0011582136869999
0	45991	4.133	0.0019658971599998
0	46190	4.151	0.0019800042359996
0	46235	4.155	0.001625619556
0	46258	4.157	0.0010396945440005
0	46336	4.164	0.0015392026819994
0	46458	4.175	0.0017142078800001
0	46503	4.179	0.0014153918720003
0	46592	4.187	0.0013184726840008
0	46615	4.189	0.0014551013080002
0	46660	4.193	0.001344931317
0	46850	4.21	0.0017878197219998
0	46884	4.213	0.0018060358290004
0	46995	4.223	0.0015422864939998
0	47469	4.266	0.0017302445650005
0	47657	4.283	0.0016133242309992
0	47758	4.292	0.0013312135690002
0	47769	4.293	0.0014969824370006
0	47836	4.299	0.0010380731459998
0	47925	4.307	0.0016181448379999
0	47993	4.313	0.001080131688
0	48313	4.342	0.0010000883299996
0	48347	4.345	0.0016290585669996
0	48481	4.357	0.0018375413639999
0	48537	4.362	0.0010758309829999
0	48583	4.366	0.0010515043980002
0	48594	4.367	0.0019324293910001
0	48650	4.372	0.0011751795499997
0	48750	4.381	0.0016583945160003
0	48829	4.388	0.0018376905800004
0	48840	4.389	0.0012733615110001
0	49006	4.404	0.0016167703900001
0	49150	4.417	0.0018426605199995
0	49261	4.427	0.0015820484579994
0	49570	4.455	0.0016518759410005
0	49626	4.46	0.0015092417169997
0	50036	4.497	0.0017669498509996
0	50047	4.498	0.00154677992
0	50103	4.503	0.0018770951780001
0	50500	4.539	0.001372768015
0	50523	4.541	0.0010600044729996
0	50634	4.551	0.0012927194140007
0	50657	4.553	0.001335559738
0	50757	4.562	0.0012740188750007
0	50836	4.569	0.0019686532250001
0	50847	4.57	0.0017488339950003
0	51002	4.584	0.0017508375409996
0	51190	4.601	0.0012726975310002
0	51389	4.619	0.0017175692229996
0	51501	4.629	0.00170294658
0	51512	4.63	0.001903539512
0	51557	4.634	0.0014619828770002
0	51580	4.636	0.0018465572800004
0	51680	4.645	0.0016934088899996
0	51901	4.665	0.0016887724370003
0	51935	4.668	0.0014578430450003
0	51980	4.672	0.0018993741809998
0	52400	4.71	0.0011237110969997
0	52411	4.711	0.0017171248680006
0	52445	4.714	0.0012791110449992
0	52501	4.719	0.0016322587230002
0	52689	4.736	0.0016687303129999
0	52844	4.75	0.0017218174810001
0	52867	4.752	0.0018573113449998
0	52923	4.757	0.001695658019
0	52969	4.761	0.0010317377089999
0	53069	4.77	0.0013866794939998
0	53147	4.777	0.0019678931170004
0	53335	4.794	0.0019888838599993
0	53501	4.809	0.0019821662639998
0	53733	4.83	0.0012058375480004
0	53801	4.836	0.0015392388890003
0	53814	4.837	0.0018929677549995
0	53825	4.838	0.001657515053
0	54080	4.861	0.0011803352649995
0	54080	4.861	0.0018352061720002
0	54191	4.871	0.0013049949759996
0	54258	4.877	0.0014017179380001
0	54292	4.88	0.0019195078819996
0	54303	4.881	4.881
0	54303	4.881	4.835033146015
0	54303	4.881	4.82717546142
0	54303	4.881	4.824748933441
0	54303	4.881	4.812181987461
0	54303	4.881	4.792757437132
0	54303	4.881	4.766645015013
0	54303	4.881	4.571019562891
0	54303	4.881	4.558700556682
0	54303	4.881	4.46942758811
0	54303	4.881	4.425198273434
0	54303	4.881	4.359911457519
0	54303	4.881	4.334818326131
0	54303	4.881	4.316630683862
0	54303	4.881	4.229691338238
0	54314	4.882	4.13631411933
0	54314	4.882	4.105897044715
0	54314	4.882	4.052140578868
0	54314	4.882	4.039832581872
0	54314	4.882	4.034752322036
0	54314	4.882	4.005959208643
0	54314	4.882	3.921864367393
0	54314	4.882	3.895880929462
0	54314	4.882	3.784289623101
0	54314	4.882	3.724547050228
0	54314	4.882	3.554182025553
0	54314	4.882	3.473845336479
0	54314	4.882	3.350899506686
0	54314	4.882	3.226949932122
0	54314	4.882	3.201997660572
0	54314	4.882	3.183203307008
0	54314	4.882	3.098960492453
0	54314	4.882	3.053212388159
0	54314	4.882	3.033499628652
0	54314	4.882	2.971244896744
0	54314	4.882	2.947119175336
0	54314	4.882	2.933392525165
0	54314	4.882	2.839185927072
0	54314	4.882	2.679507470709
0	54314	4.882	2.613649503963
0	54314	4.882	2.509877688066
0	54314	4.882	2.224899930811
0	54314	4.882	2.194673531508
0	54314	4.882	2.120870609595
0	54314	4.882	1.975793316157
0	54314	4.882	1.933570311463
0	54314	4.882	1.928990354135
0	54314	4.882	1.820377759634
0	54314	4.882	1.679089917872
0	54314	4.882	1.63362281929
0	54314	4.882	1.556108091258
0	54314	4.882	1.484481929152
0	54314	4.882	1.478176807711
0	54314	4.882	1.452521571007
0	54314	4.882	1.357587713409
0	54314	4.882	1.320373012685
0	54314	4.882	1.194245289982
0	54314	4.882	1.127271589257
0	54314	4.882	1.12143412025
0	54314	4.882	0.975374028979
0	54314	4.882	0.960224571044
0	54314	4.882	0.819202558838
0	54314	4.882	0.677507147379
0	54314	4.882	0.672822837351
0	54314	4.882	0.572433355779
0	54314	4.882	0.527250473896
0	54314	4.882	0.411684293106
0	54314	4.882	0.122477299805
0	54314	4.882	0.045717278997
0	54436	4.893	0.0019708758529999
0	54525	4.901	0.0013380250299999
0	54581	4.906	0.0019352292989998
0	54616	4.909	0.0017151102139996
0	54616	4.909	0.0018375543750002
0	54870	4.932	0.0010517663749994
0	54960	4.94	0.0011673414309996
0	54971	4.941	0.001432990843
0	55016	4.945	0.0017257338450003
0	55051	4.948	0.0013942928159993
0	55051	4.948	0.0012240669769996
0	55108	4.953	0.0015706315840003
0	55119	4.954	0.0015973635569999
0	55319	4.972	0.0017425670119993
0	55331	4.973	0.0012829881140002
0	55497	4.988	0.0018954612359998
0	55531	4.991	0.0012098124879998
0	55587	4.996	0.0015777236279995
0	55632	5	0.0013841617370005
0	55853	5.02	0.0018083982629999
0	55898	5.024	0.0017128624599998
0	55932	5.027	0.0011096721240005
0	56110	5.043	0.0011261742890003
0	56155	5.047	0.0011876467879999
0	56288	5.059	0.0016534544490003
0	56488	5.077	0.0013595346819999
0	56488	5.077	0.0018074479030004
0	56610	5.088	0.0019774623910003
0	56677	5.094	0.0010227429290008
0	57151	5.137	0.0010785833159996
0	57174	5.139	0.001420104358
0	57318	5.152	0.0016051600139999
0	57473	5.166	0.0015534491879992
0	57595	5.177	0.0013853299869995
0	57640	5.181	0.0014666572630002
0	57696	5.186	0.0016099161370002
0	58019	5.215	0.0018656453889996
0	58030	5.216	0.001862500094
0	58030	5.216	0.0010700421430005
0	58075	5.22	0.0015192312729999
0	58154	5.227	0.0015811128500003
0	58154	5.227	0.0012776458450006
0	58200	5.231	0.001822452431
0	58245	5.235	0.0017984164630001
0	58565	5.264	0.0019415033200003
0	58699	5.276	0.0010556132390001
0	58711	5.277	0.0011823072960002
0	58722	5.278	0.0013926946999998
0	58756	5.281	0.0011801300940002
0	58790	5.284	0.0019920258340003
0	58836	5.288	0.0019669949610002
0	58881	5.292	0.0016205446909998
0	59003	5.303	0.0011558466450001
0	59313	5.331	0.0015642307729999
0	59469	5.345	0.0015131941739996
0	59480	5.346	0.0017463241520002
0	59591	5.356	0.0018103263339997
0	59901	5.384	0.0010390608249997
0	60002	5.393	0.0011466968639997
0	60025	5.395	0.001535460385
0	60071	5.399	0.0013662871999998
0	60071	5.399	0.0014565304129999
0	60138	5.405	0.0016366561110006
0	60183	5.409	0.0019021923110003
0	60272	5.417	0.0019169982160001
0	60295	5.419	0.001012243521
0	60538	5.441	0.0013037572199996
0	60594	5.446	0.0011589428559997
0	60661	5.452	0.0014077056649997
0	60795	5.464	0.0018730500379993
0	60952	5.478	0.0011735215229995
0	61019	5.484	0.0016009162469999
0	61075	5.489	0.0018854582739998
0	61142	5.495	0.0018710235010007
0	61220	5.502	0.0016557208550001
0	61265	5.506	0.0017560086250006
0	61376	5.516	0.0017730189730001
0	61631	5.539	0.0011893526659996
0	61642	5.54	0.0017033158110005
0	61973	5.57	0.0014648998100002
0	62018	5.574	0.0012800963200004
0	62074	5.579	0.0019558888029998
0	62318	5.601	0.0014587302039999
0	62329	5.602	0.0019213921160004
0	62363	5.605	0.0010364818199999
0	62573	5.624	0.0013102208240001
0	62762	5.641	0.0012488991290001
0	62807	5.645	0.0011679319769993
0	62852	5.649	0.0016875505489997
0	63018	5.664	0.0010278136280002
0	63184	5.679	0.0012368905870002
0	63263	5.686	0.001323207894
0	63263	5.686	0.0012312546910005
0	63462	5.704	0.0018246475690002
0	63474	5.705	0.732975784271
0	63474	5.705	0.674881734222
0	63474	5.705	0.497234797662
0	63474	5.705	0.475298399532
0	63474	5.705	0.42098231413
0	63474	5.705	0.380613094858
0	63474	5.705	0.347535848426
0	63474	5.705	0.31351486162
0	63474	5.705	0.245161377029
0	63474	5.705	0.233255440376
0	63474	5.705	0.229854930762
0	63474	5.705	0.075070178592
0	63485	5.706	0.0012852234239995
0	63673	5.723	0.0010961751599998
0	63784	5.733	0.0019762045389999
0	63928	5.746	0.0012838875459993
0	64171	5.768	0.0019439119989997
0	64337	5.783	0.0018545304159998
0	64536	5.801	0.0016916752689999
0	64747	5.82	0.0014505567340004
0	64758	5.821	0.0010724161539999
0	64781	5.823	0.001018667556
0	64804	5.825	0.0019930688920002
0	64827	5.827	0.0010745420009997
0	64861	5.83	0.0019737591030005
0	65016	5.844	0.0011539349930008
0	65039	5.846	0.001355315644
0	65106	5.852	0.0016429747860007
0	65162	5.857	0.0011747475170001
0	65186	5.859	0.0019198144499999
0	65197	5.86	0.0011472200520002
0	65286	5.868	0.0019051996439998
0	65342	5.873	0.0010144103530001
0	65365	5.875	0.0014938446119999
0	65697	5.905	0.0015871323200001
0	66062	5.938	0.0012773080999997
0	66062	5.938	0.0012564998539997
0	66107	5.942	0.001939150548
0	66185	5.949	0.0012669828540002
0	66219	5.952	0.0011754222339997
0	66242	5.954	0.0012415686259999
0	66375	5.966	0.0016393806549999
0	66497	5.977	0.0016384739560005
0	66564	5.983	0.0017884164739996
0	66764	6.001	0.0016387425369997
0	66908	6.014	0.0014050552900002
0	66931	6.016	0.0013273219689998
0	67087	6.03	0.0018930852490007
0	67098	6.031	0.0018395537479998
0	67121	6.033	0.001597416758
0	67232	6.043	0.0011559796979999
0	67332	6.052	0.001461371974
0	67422	6.06	0.0014116625979996
0	67500	6.067	0.0015487262900002
0	67644	6.08	0.0018074572550004
0	67854	6.099	0.0019329622319999
0	67923	6.105	0.0016471366369997
0	67934	6.106	0.0013159649899999
0	68188	6.129	0.0019450999679993
0	68431	6.151	0.0017351477989997
0	68707	6.176	0.0019268429329999
0	68742	6.179	0.0013273669180007
0	68742	6.179	0.0012289623900008
0	68898	6.193	0.0012007864100001
0	68898	6.193	0.0016607935800002
0	69010	6.203	0.0018713981820007
0	69021	6.204	0.001828775161
0	69056	6.207	0.0015322084239999
0	69056	6.207	0.0016467215210003
0	69134	6.214	0.0016082478809993
0	69267	6.226	0.0018562094700005
0	69477	6.245	0.0019239668770004
0	69533	6.25	0.0014497519750005
0	69589	6.255	0.0014507815440004
0	69888	6.282	0.0017399465260004
0	69999	6.292	0.0014798664439999
0	70033	6.295	0.001968977152
0	70078	6.299	0.001961177618
0	70113	6.302	0.0013517458659997
0	70124	6.303	0.0012300697220002
0	70235	6.313	0.0011465169809997
0	70567	6.343	0.0015282644340004
0	70567	6.343	0.0015443412050002
0	70722	6.357	0.0018021339130003
0	70767	6.361	0.0017654084179997
0	70801	6.364	0.0013643715229996
0	70902	6.373	0.0010835327450005
0	70902	6.373	0.0017303351470002
0	70925	6.375	0.0014853699890001
0	71060	6.387	0.0016734044129993
0	71060	6.387	0.0019834276339994
0	71071	6.388	0.0017389125600005
0	71414	6.419	0.0013374616589994
0	71548	6.431	0.0017711656100001
0	71559	6.432	0.0010166210909999
0	71604	6.436	0.001975931894
0	71759	6.45	0.0019158108120001
0	71914	6.464	0.0019954769799995
0	71948	6.467	0.001718945915
0	71982	6.47	0.0013312129709995
0	72071	6.478	0.0019914476510001
0	72128	6.483	0.0012537485049995
0	72139	6.484	0.0018682888650003
0	72283	6.497	0.0012552583760002
0	72603	6.526	0.0011349612520002
0	72670	6.532	0.0010791301950004
0	72737	6.538	0.0016952625270008
0	72794	6.543	0.0018130454770002
0	72806	6.544	0.0016473715469996
0	72817	6.545	0.001186227691
0	72829	6.546	0.641295553831
0	72829	6.546	0.545534521389
0	72829	6.546	0.491782326199
0	72829	6.546	0.442354878044
0	72829	6.546	0.266630794299
0	72829	6.546	0.151313307955
0	72840	6.547	0.0015086863829996
0	72973	6.559	0.0011019838220001
0	73007	6.562	0.0019077787680004
0	73030	6.564	0.0015656658610004
0	73350	6.593	0.0016815619660004
0	73539	6.61	0.0011840489369996
0	73574	6.613	0.0019454666769994
0	73652	6.62	0.0018782296789999
0	73719	6.626	0.0012762563219999
0	73786	6.632	0.0013555843599997
0	73820	6.635	0.0015755913940003
0	73877	6.64	0.0011330749180001
0	73978	6.649	0.0014013092030005
0	73978	6.649	0.0019434333459998
0	74122	6.662	0.0012580934619999
0	74156	6.665	0.0019619284179999
0	74190	6.668	0.0017133209290003
0	74290	6.677	0.0013139673389997
0	74347	6.682	0.0012359846519994
0	74358	6.683	0.001519758863
0	74502	6.696	0.0010557394279997
0	74613	6.706	0.0011512122669997
0	74702	6.714	0.0012117079139999
0	74736	6.717	0.0012591492720002
0	74760	6.719	0.0011724285480001
0	74771	6.72	0.0015112140589997
0	74849	6.727	0.0011785188359994
0	74938	6.735	0.0015141103769993
0	75049	6.745	0.0014186091960005
0	75138	6.753	0.0016436194600002
0	75271	6.765	0.0013637900729995
0	75393	6.776	0.001528745621
0	75482	6.784	0.0010229997889999
0	75736	6.807	0.0013495099909999
0	75869	6.819	0.0010663785850005
0	75903	6.822	0.0010501308480002
0	76245	6.853	0.0016572758819997
0	76269	6.855	0.0013797238339999
0	76269	6.855	0.0014115088969993
0	76479	6.874	0.0018142828230001
0	76613	6.886	0.0013584070019999
0	76624	6.887	0.0010235534099996
0	76669	6.891	0.0017823312339997
0	76803	6.903	0.0018898835369994
0	76980	6.919	0.0017538666150001
0	77103	6.93	0.00104143072
0	77103	6.93	0.0011982187149995
0	77236	6.942	0.0010060686740001
0	77381	6.955	0.0017646564150002
0	77392	6.956	0.001812107169
0	77482	6.964	0.0011955420959993
0	77594	6.974	0.0010840551510007
0	77969	7.008	0.001021952206
0	78410	7.048	0.0014418781490004
0	78444	7.051	0.001097748756
0	78490	7.055	0.0015189755299998
0	78501	7.056	0.0013330458660006
0	78591	7.064	0.0017041542529999
0	78747	7.078	0.0018572206690006
0	78747	7.078	0.0013325253300005
0	79111	7.111	0.0010727985649996
0	79134	7.113	0.0011255069889993
0	79597	7.155	0.0018951319180003
0	79719	7.166	0.0013512464029999
0	79841	7.177	0.0014544584289995
0	79875	7.18	0.0010605259609999
0	80086	7.199	0.0010724127900001
0	80142	7.204	0.0013403196209998
0	80165	7.206	0.0017258891989993
0	80199	7.209	0.0019146821440001
0	80244	7.213	0.0012105413960004
0	80267	7.215	0.0011029900889996
0	80290	7.217	0.0011534362849996
0	80390	7.226	0.0016680674499998
0	80413	7.228	0.001424528047
0	80458	7.232	0.001852173724
0	80481	7.234	0.0012554383680001
0	80537	7.239	0.0015461122450002
0	80890	7.271	0.0018421521840004
0	80980	7.279	0.0017781607989997
0	80991	7.28	0.0012775787220001
0	81081	7.288	0.0017457204090006
0	81092	7.289	0.002109882729
0	81137	7.293	0.0019603840160007
0	81249	7.303	0.0014723985289997
0	81306	7.308	0.0015615429310003
0	81418	7.318	0.0013013251789999
0	81418	7.318	0.0012449530319998
0	81507	7.326	0.0016933647949999
0	81530	7.328	0.0010312775450005
0	81564	7.331	0.001058396276
0	81620	7.336	0.0017919366159997
0	81654	7.339	0.0014367449809995
0	81820	7.354	0.001649435669
0	81964	7.367	0.001177541393
0	81998	7.37	0.0013032913010003
0	82120	7.381	0.0010628173350007
0	82176	7.386	0.0013471815430002
0	82397	7.406	0.0018764368730002
0	82596	7.424	0.0014261765439993
0	82607	7.425	0.821299819753
0	82607	7.425	0.81447342282
0	82607	7.425	0.7869295937
0	82607	7.425	0.530936756133
0	82607	7.425	0.467779006831
0	82607	7.425	0.452813749159
0	82607	7.425	0.366218457353
0	82607	7.425	0.235213547446
0	82607	7.425	0.126018109581
0	82607	7.425	0.121037360188
0	82674	7.431	0.0018705742460003
0	82874	7.449	0.0018262998200003
0	82885	7.45	0.0019949170440006
0	83019	7.462	0.0012995306069996
0	83198	7.478	0.0018726575269996
0	83209	7.479	0.0017864763570001
0	83209	7.479	0.0011961407380001
0	83232	7.481	0.0010844651140003
0	83486	7.504	0.0016907682709997
0	83751	7.528	0.0016497403229998
0	83961	7.547	0.0015444984039998
0	84039	7.554	0.0013004872150004
0	84161	7.565	0.0015463943589999
0	84228	7.571	0.0019444405149995
0	84296	7.577	0.0014886495170003
0	84307	7.578	0.0013273252820003
0	84539	7.599	0.0013825023700003
0	84661	7.61	0.0013876951839995
0	84829	7.625	0.0011299171540005
0	84840	7.626	0.0019103401719995
0	84951	7.636	0.0010883993680002
0	85095	7.649	0.0012418357930004
0	85151	7.654	0.0018973569409999
0	85218	7.66	0.0013317118360003
0	85318	7.669	0.0015740125049994
0	85419	7.678	0.0019247106940004
0	85475	7.683	0.0018090551869996
0	85564	7.691	0.0012620609639997
0	85642	7.698	0.0013707444619993
0	85753	7.708	0.0012410850730005
0	85886	7.72	0.0017888657549996
0	86019	7.732	0.0019658231390007
0	86043	7.734	0.0014132720419999
0	86055	7.735	0.0011959962199999
0	86066	7.736	0.0010875742099996
0	86112	7.74	0.0015678240320005
0	86123	7.741	0.0018270170759997
0	86212	7.749	0.0017873487650002
0	86368	7.763	0.0017506447019997
0	86368	7.763	0.0016604785360004
0	86534	7.778	0.0011429545159993
0	86568	7.781	0.0017325749339996
0	86635	7.787	0.0016540105780001
0	86658	7.789	0.0011117101259996
0	86868	7.808	0.0018976885579995
0	87124	7.831	0.0018857685139997
0	87135	7.832	0.0016875565459999
0	87269	7.844	0.0018514289299993
0	87391	7.855	0.0011952839289995
0	87766	7.889	0.0012219985450006
0	87789	7.891	0.0017397607600005
0	87856	7.897	0.001102900767
0	87901	7.901	0.0011703802109997
0	88178	7.926	0.0011801751580007
0	88224	7.93	0.0016823759389997
0	88235	7.931	0.0016386586110002
0	88280	7.935	0.0012392059739996
0	88325	7.939	0.001366635338
0	88437	7.949	0.0013136335880004
0	88669	7.97	0.0018000038960002
0	88736	7.976	0.001214641112
0	88913	7.992	0.0018407165449998
0	88980	7.998	0.0018051374730002
0	89113	8.01	0.0017053389940003
0	89147	8.013	0.0016625890010005
0	89203	8.018	0.0019507364620015
0	89259	8.023	0.0014580175370007
0	89458	8.041	0.0015929153870005
0	89525	8.047	0.0013076058180008
0	89581	8.052	0.0017069246439991
0	89681	8.061	0.0019881751320003
0	89836	8.075	0.0015479060209991
0	89991	8.089	0.0013560194249997
0	90014	8.091	0.0019047386279993
0	90115	8.1	0.0018399504209992
0	90126	8.101	0.0010505566169989
0	90325	8.119	0.0010124977880004
0	90637	8.147	0.0010611053120009
0	90648	8.148	0.0018743945139992
0	90648	8.148	0.0010237291670006
0	90793	8.161	0.0013557454050002
0	90827	8.164	0.0018668244879994
0	90971	8.177	0.0016867732649999
0	91016	8.181	0.0014287939589988
0	91116	8.19	0.0011241918199989
0	91139	8.192	0.0012473935389998
0	91196	8.197	0.0013331647489991
0	91207	8.198	0.0016399969060004
0	91263	8.203	0.0018220213309998
0	91330	8.209	0.0019336329479991
0	91375	8.213	0.0016202505829988
0	91420	8.217	0.0019686931000003
0	91487	8.223	0.0015604913629996
0	91554	8.229	0.0011574446160001
0	91786	8.25	0.0010888473390001
0	91842	8.255	0.0018283996099999
0	91888	8.259	0.001678546342001
0	92032	8.272	0.0019847434680003
0	92198	8.287	0.0019415722949994
0	92243	8.291	0.0013294788109999
0	92387	8.304	0.0017688619230007
0	92410	8.306	0.0019162988270001
0	92653	8.328	0.001528969620999
0	92930	8.353	0.0010273820569999
0	93020	8.361	0.001001595092001
0	93175	8.375	0.0013630803570006
0	93199	8.377	0.0016276114870006
0	93199	8.377	0.0011037392780011
0	93255	8.382	0.0017457328830002
0	93311	8.387	0.0019432231780012
0	93478	8.402	0.001176538955999
0	93489	8.403	0.0012083897080011
0	93567	8.41	0.0018859663290005
0	93812	8.432	0.0014349681150012
0	93812	8.432	0.0019747447320011
0	94034	8.452	0.0019463464990004
0	94058	8.454	0.0018041617040012
0	94058	8.454	0.001072155319001
0	94103	8.458	0.0017463378300011
0	94181	8.465	0.0015438507300001
0	94281	8.474	0.001935633335
0	94381	8.483	0.001454361007001
0	94504	8.494	0.0019295262910006
0	94879	8.528	0.0015112278890008
0	94957	8.535	0.0016097776180004
0	95277	8.564	0.0012768107949999
0	95344	8.57	0.0017437598470007
0	95444	8.579	0.0017789377560007
0	95599	8.593	0.0010665731560007
0	95644	8.597	0.0019909100389999
0	95755	8.607	0.0013691532389988
0	95833	8.614	0.0017265334629997
0	95922	8.622	0.0012692148859994
0	96111	8.639	0.0013805916380001
0	96111	8.639	0.0015661955649993
0	96234	8.65	0.0016908340890005
0	96245	8.651	0.0019640015399993
0	96797	8.701	0.0018486757740011
0	96832	8.704	0.0014270310930016
0	96832	8.704	0.0012087402960006
0	96899	8.71	0.0016270414039994
0	96934	8.713	0.0014909517890001
0	96945	8.714	0.0026555731470008
0	97023	8.721	0.0014211234240005
0	97068	8.725	0.0015481424940003
0	97124	8.73	0.0016932183940011
0	97159	8.733	0.0017660229480008
0	97170	8.734	0.0021542906860006
0	97248	8.741	0.0017887995850003
0	97392	8.754	0.0012419167240001
0	97437	8.758	0.0016549506330001
0	97813	8.792	0.0014986341130001
0	97837	8.794	0.001123081746
0	97848	8.795	0.0015375741279993
0	97893	8.799	0.0014106530889997
0	97971	8.806	0.001211339156999
0	98313	8.837	0.0014956216699993
0	98369	8.842	0.0012100169520011
0	98392	8.844	0.0013029068100003
0	98415	8.846	0.0013075656520005
0	98504	8.854	0.0013853900419996
0	98571	8.86	0.0015938534809994
0	99123	8.91	0.0012183898820002
0	99168	8.914	0.0014750633589991
0	99400	8.935	0.0014628745890004
0	99423	8.937	0.0017157171089988
0	99446	8.939	0.0014318682370007
0	99469	8.941	0.0013652522829997
0	99558	8.949	0.0015343855530006
0	99683	8.96	0.0018773413809985
0	99683	8.96	0.001536244335
0	99694	8.961	0.0014182950380004
0	99761	8.967	0.0011469274760003
0	99993	8.988	0.0010391250650006
0	100071	8.995	0.001837230832999
0	100160	9.003	0.0019402199369996
0	100260	9.012	0.0013678096920007
0	100283	9.014	0.0017592158830002
0	100340	9.019	0.0015049598800001
0	100484	9.032	0.0018847656080005
0	100585	9.041	0.0018769893920005
0	100664	9.048	0.0019077920590007
0	100664	9.048	0.0018385302459993
0	100687	9.05	0.0013849202229999
0	100776	9.058	0.0018303439070007
0	100799	9.06	0.0014845045200005
0	100932	9.072	0.0016713897239988
0	100966	9.075	0.0014325576179992
0	101000	9.078	0.0011587660519989
0	101155	9.092	0.0019766725090005
0	101629	9.135	0.0012176509180009
0	102103	9.178	0.0010420543329985
0	102137	9.181	0.0017582010649999
0	102314	9.197	0.0017897063409986
0	102403	9.205	0.001383189928001
0	102448	9.209	0.0019119488010002
0	102494	9.213	0.001556358265999
0	102505	9.214	0.0019090770810006
0	102825	9.243	0.0014216478820011
0	102860	9.246	0.0014096407060009
0	102894	9.249	0.0010095540830015
0	102952	9.254	0.0014271094979996
0	102952	9.254	0.0013212369629994
0	102963	9.255	0.0018018127639987
0	102986	9.257	0.0012978904349996
0	103141	9.271	0.001649066932
0	103219	9.278	0.0014977572140005
0	103429	9.297	0.0010614599480014
0	103463	9.3	0.0011985491419999
0	103607	9.313	0.001254761717
0	103652	9.317	0.001675893852001
0	103853	9.335	0.0013359703219997
0	103864	9.336	0.0017742471900011
0	103898	9.339	0.0010343507410013
0	103943	9.343	0.0010503516349996
0	104000	9.348	0.0013336855579986
0	104011	9.349	0.0012395534500005
0	104464	9.39	0.0010240889740007
0	104509	9.394	0.00120057002
0	104554	9.398	0.0011967322089994
0	104632	9.405	0.001182202559999
0	104732	9.414	0.0016065502210001
0	104898	9.429	0.0019011959109996
0	104922	9.431	0.0011761135450001
0	104933	9.432	0.0010854169860011
0	104989	9.437	0.0010632790909995
0	105012	9.439	0.0016384566420005
0	105079	9.445	0.0017556688110005
0	105146	9.451	0.0012197144740007
0	105467	9.48	0.0012046073520011
0	105478	9.481	0.0013582965609995
0	105556	9.488	0.0010658534939996
0	105868	9.516	0.0012127047230006
0	105925	9.521	0.0010206575129992
0	106125	9.539	0.0016751516719999
0	106125	9.539	0.0010815167999993
0	106170	9.543	0.0012942652409986
0	106193	9.545	0.0018677247129997
0	106227	9.548	0.0018971051219996
0	106250	9.55	0.0019690358529996
0	106405	9.564	0.0011489760829999
0	106461	9.569	0.0014337156709985
0	106539	9.576	0.0014482945940006
0	106617	9.583	0.0016472631610007
0	107047	9.622	0.0015994242030004
0	107235	9.639	0.0010140406219996
0	107302	9.645	0.0017187150999991
0	107600	9.672	0.0012346797940008
0	107646	9.676	0.001325279265
0	107845	9.694	0.0011382877889989
0	107901	9.699	0.0018493223589999
0	107980	9.706	0.0014047464519997
0	107980	9.706	0.0011818582239993
0	108168	9.723	0.0017737800679996
0	108345	9.739	0.0010118923349989
0	108390	9.743	0.0010836937969998
0	108491	9.752	0.0018468444870017
0	108502	9.753	0.00117936959
0	108581	9.76	0.0014001614819996
0	108581	9.76	0.0015254679259993
0	108758	9.776	0.0018335264689995
0	109089	9.806	0.0012971760759992
0	109442	9.838	0.0018541673199994
0	109509	9.844	0.0014134687249996
0	109567	9.849	0.0016235008780008
0	109578	9.85	0.0011782562320004
0	109578	9.85	0.0017549185169994
0	109745	9.865	0.0014323686160012
0	109955	9.884	0.0019201416010013
0	110000	9.888	0.0018960643240007
0	110089	9.896	0.0014894579039986
0	110113	9.898	0.0010939547270006
0	110113	9.898	0.0013815026760007
0	110158	9.902	0.0010444777940002
0	110181	9.904	0.0017422145319994
0	110315	9.916	0.0012142161770008
0	110326	9.917	0.0011030756999997
0	110514	9.934	0.001672979104999
0	110559	9.938	0.0012056966060001
0	110649	9.946	0.0014383656459991
0	110660	9.947	0.0010745363809992
0	110705	9.951	0.0017296465500003
0	110751	9.955	0.0011704474310008
0	110774	9.957	0.0017819086539994
0	110918	9.97	0.0015059856500006
0	111007	9.978	0.0011572679460006
0	111063	9.983	0.0018237946599999
0	111141	9.99	0.0010091820620008
1	12	0.001	223
1	23	0.002	73
1	34	0.003	0
1	45	0.004	0
1	56	0.005	0
1	68	0.006	0
1	79	0.007	26
1	90	0.008	0
1	101	0.009	0
1	112	0.01	0
1	124	0.011	0
1	136	0.012	51
1	147	0.013	21
1	158	0.014	0
1	169	0.015	0
1	180	0.016	0
1	191	0.017	0
1	202	0.018	0
1	213	0.019	0
1	224	0.02	0
1	235	0.021	0
1	246	0.022	0
1	258	0.023	0
1	269	0.024	19
1	280	0.025	0
1	292	0.026	0
1	303	0.027	12
1	315	0.028	0
1	326	0.029	29
1	337	0.03	0
1	348	0.031	0
1	359	0.032	0
1	370	0.033	0
1	381	0.034	0
1	392	0.035	0
1	403	0.036	0
1	414	0.037	0
1	425	0.038	0
1	436	0.039	0
1	447	0.04	0
1	458	0.041	0
1	469	0.042	0
1	480	0.043	0
1	491	0.044	0
1	503	0.045	0
1	515	0.046	30
1	526	0.047	0
1	537	0.048	0
1	549	0.049	0
1	560	0.05	51
1	572	0.051	0
1	583	0.052	69
1	594	0.053	0
1	606	0.054	0
1	617	0.055	0
1	628	0.056	0
1	640	0.057	0
1	652	0.058	0
1	663	0.059	8
1	674	0.06	0
1	685	0.061	0
1	696	0.062	0
1	707	0.063	0
1	718	0.064	0
1	730	0.065	0
1	741	0.066	64
1	752	0.067	0
1	764	0.068	0
1	776	0.069	62
1	787	0.07	0
1	798	0.071	0
1	809	0.072	0
1	820	0.073	0
1	831	0.074	0
1	842	0.075	0
1	853	0.076	0
1	864	0.077	0
1	875	0.078	0
1	886	0.079	0
1	897	0.08	0
1	908	0.081	0
1	919	0.082	0
1	930	0.083	0
1	941	0.084	0
1	952	0.085	0
1	963	0.086	0
1	974	0.087	0
1	985	0.088	0
1	997	0.089	0
1	1008	0.09	0
1	1019	0.091	0
1	1030	0.092	0
1	1041	0.093	0
1	1052	0.094	0
1	1063	0.095	0
1	1075	0.096	0
1	1086	0.097	2
1	1097	0.098	0
1	1109	0.099	0
1	1120	0.1	1
1	1131	0.101	0
1	1142	0.102	0
1	1153	0.103	0
1	1164	0.104	0
1	1175	0.105	0
1	1186	0.106	0
1	1198	0.107	0
1	1209	0.108	61
1	1220	0.109	0
1	1231	0.11	0
1	1242	0.111	0
1	1253	0.112	0
1	1265	0.113	0
1	1276	0.114	9
1	1288	0.115	0
1	1299	0.116	0
1	1310	0.117	0
1	1321	0.118	0
1	1332	0.119	0
1	1343	0.12	0
1	1354	0.121	0
1	1365	0.122	0
1	1376	0.123	0
1	1387	0.124	0
1	1398	0.125	0
1	1409	0.126	0
1	1420	0.127	0
1	1431	0.128	0
1	1442	0.129	0
1	1453	0.13	0
1	1465	0.131	0
1	1476	0.132	48
1	1488	0.133	0
1	1499	0.134	73
1	1510	0.135	0
1	1521	0.136	0
1	1532	0.137	0
1	1543	0.138	0
1	1554	0.139	0
1	1565	0.14	0
1	1576	0.141	0
1	1587	0.142	0
1	1598	0.143	0
1	1609	0.144	0
1	1620	0.145	0
1	1632	0.146	0
1	1644	0.147	31
1	1655	0.148	72
1	1666	0.149	0
1	1677	0.15	0
1	1688	0.151	0
1	1700	0.152	0
1	1711	0.153	4
1	1722	0.154	0
1	1733	0.155	0
1	1744	0.156	0
1	1755	0.157	0
1	1766	0.158	0
1	1777	0.159	0
1	1788	0.16	0
1	1800	0.161	0
1	1811	0.162	71
1	1822	0.163	0
1	1833	0.164	0
1	1844	0.165	0
1	1855	0.166	0
1	1866	0.167	0
1	1877	0.168	0
1	1888	0.169	0
1	1899	0.17	0
1	1910	0.171	0
1	1921	0.172	0
1	1932	0.173	0
1	1943	0.174	0
1	1954	0.175	0
1	1966	0.176	0
1	1977	0.177	22
1	1988	0.178	0
1	2000	0.179	0
1	2011	0.18	50
1	2022	0.181	0
1	2033	0.182	0
1	2044	0.183	0
1	2056	0.184	0
1	2067	0.185	58
1	2078	0.186	0
1	2089	0.187	0
1	2101	0.188	0
1	2113	0.189	4
1	2124	0.19	69
1	2135	0.191	0
1	2146	0.192	0
1	2157	0.193	0
1	2168	0.194	0
1	2179	0.195	0
1	2190	0.196	0
1	2201	0.197	0
1	2212	0.198	0
1	2223	0.199	0
1	2234	0.2	0
1	2245	0.201	0
1	2257	0.202	0
1	2268	0.203	25
1	2279	0.204	0
1	2290	0.205	0
1	2301	0.206	0
1	2312	0.207	0
1	2323	0.208	0
1	2334	0.209	0
1	2345	0.21	0
1	2358	0.211	0
1	2369	0.212	71
1	2380	0.213	0
1	2391	0.214	0
1	2402	0.215	0
1	2413	0.216	0
1	2425	0.217	0
1	2436	0.218	53
1	2448	0.219	0
1	2459	0.22	42
1	2470	0.221	0
1	2481	0.222	0
1	2492	0.223	0
1	2503	0.224	0
1	2514	0.225	0
1	2525	0.226	0
1	2536	0.227	0
1	2547	0.228	0
1	2558	0.229	0
1	2569	0.23	0
1	2581	0.231	0
1	2592	0.232	16
1	2603	0.233	0
1	2614	0.234	0
1	2625	0.235	0
1	2636	0.236	0
1	2648	0.237	0
1	2659	0.238	65
1	2670	0.239	0
1	2681	0.24	0
1	2692	0.241	0
1	2703	0.242	0
1	2714	0.243	0
1	2726	0.244	0
1	2737	0.245	69
1	2748	0.246	0
1	2759	0.247	0
1	2770	0.248	0
1	2782	0.249	0
1	2793	0.25	26
1	2804	0.251	0
1	2815	0.252	0
1	2826	0.253	0
1	2837	0.254	0
1	2848	0.255	0
1	2859	0.256	0
1	2871	0.257	0
1	2882	0.258	8
1	2893	0.259	0
1	2904	0.26	0
1	2915	0.261	0
1	2926	0.262	0
1	2937	0.263	0
1	2948	0.264	0
1	2959	0.265	0
1	2970	0.266	0
1	2982	0.267	0
1	2993	0.268	27
1	3004	0.269	0
1	3015	0.27	0
1	3026	0.271	0
1	3037	0.272	0
1	3049	0.273	0
1	3060	0.274	26
1	3071	0.275	0
1	3082	0.276	0
1	3093	0.277	0
1	3104	0.278	0
1	3115	0.279	0
1	3126	0.28	0
1	3137	0.281	0
1	3148	0.282	0
1	3159	0.283	0
1	3171	0.284	0
1	3182	0.285	23
1	3193	0.286	0
1	3205	0.287	0
1	3216	0.288	10
1	3227	0.289	0
1	3238	0.29	0
1	3250	0.291	0
1	3261	0.292	68
1	3273	0.293	0
1	3285	0.294	24
1	3297	0.295	28
1	3308	0.296	38
1	3319	0.297	0
1	3330	0.298	0
1	3341	0.299	0
1	3352	0.3	0
1	3363	0.301	0
1	3374	0.302	0
1	3385	0.303	0
1	3396	0.304	0
1	3407	0.305	0
1	3418	0.306	0
1	3429	0.307	0
1	3440	0.308	0
1	3451	0.309	0
1	3463	0.31	0
1	3474	0.311	0
1	3485	0.312	0
1	3496	0.313	0
1	3507	0.314	0
1	3518	0.315	0
1	3529	0.316	0
1	3540	0.317	0
1	3551	0.318	0
1	3562	0.319	0
1	3573	0.32	0
1	3584	0.321	0
1	3595	0.322	0
1	3607	0.323	0
1	3618	0.324	0
1	3629	0.325	0
1	3641	0.326	0
1	3652	0.327	9
1	3663	0.328	0
1	3674	0.329	0
1	3685	0.33	0
1	3696	0.331	0
1	3707	0.332	0
1	3718	0.333	0
1	3729	0.334	0
1	3740	0.335	0
1	3751	0.336	0
1	3762	0.337	0
1	3773	0.338	0
1	3784	0.339	0
1	3795	0.34	0
1	3806	0.341	0
1	3817	0.342	0
1	3828	0.343	0
1	3839	0.344	0
1	3850	0.345	0
1	3861	0.346	0
1	3872	0.347	0
1	3883	0.348	0
1	3894	0.349	0
1	3906	0.35	0
1	3917	0.351	33
1	3928	0.352	0
1	3939	0.353	0
1	3950	0.354	0
1	3961	0.355	0
1	3972	0.356	0
1	3984	0.357	0
1	3995	0.358	35
1	4006	0.359	0
1	4017	0.36	0
1	4028	0.361	0
1	4039	0.362	0
1	4050	0.363	0
1	4061	0.364	0
1	4073	0.365	0
1	4084	0.366	11
1	4095	0.367	0
1	4106	0.368	0
1	4117	0.369	0
1	4128	0.37	0
1	4139	0.371	0
1	4150	0.372	0
1	4161	0.373	0
1	4172	0.374	0
1	4183	0.375	0
1	4194	0.376	0
1	4205	0.377	0
1	4216	0.378	0
1	4227	0.379	0
1	4238	0.38	0
1	4249	0.381	0
1	4260	0.382	0
1	4271	0.383	0
1	4282	0.384	0
1	4294	0.385	0
1	4305	0.386	24
1	4316	0.387	0
1	4327	0.388	0
1	4338	0.389	0
1	4349	0.39	0
1	4360	0.391	0
1	4372	0.392	0
1	4383	0.393	16
1	4394	0.394	0
1	4405	0.395	0
1	4416	0.396	0
1	4427	0.397	0
1	4438	0.398	0
1	4449	0.399	0
1	4460	0.4	0
1	4471	0.401	0
1	4482	0.402	0
1	4493	0.403	0
1	4504	0.404	0
1	4515	0.405	0
1	4526	0.406	0
1	4537	0.407	0
1	4548	0.408	0
1	4559	0.409	0
1	4570	0.41	0
1	4581	0.411	0
1	4593	0.412	0
1	4604	0.413	0
1	4615	0.414	0
1	4626	0.415	0
1	4637	0.416	0
1	4648	0.417	0
1	4659	0.418	0
1	4670	0.419	0
1	4681	0.42	0
1	4692	0.421	0
1	4703	0.422	0
1	4714	0.423	0
1	4725	0.424	0
1	4736	0.425	0
1	4748	0.426	0
1	4759	0.427	72
1	4770	0.428	0
1	4781	0.429	0
1	4793	0.43	0
1	4804	0.431	75
1	4815	0.432	0
1	4827	0.433	0
1	4838	0.434	63
1	4849	0.435	0
1	4860	0.436	0
1	4871	0.437	0
1	4883	0.438	0
1	4894	0.439	47
1	4905	0.44	0
1	4916	0.441	0
1	4927	0.442	0
1	4938	0.443	0
1	4949	0.444	0
1	4960	0.445	0
1	4971	0.446	0
1	4982	0.447	0
1	4993	0.448	0
1	5004	0.449	0
1	5015	0.45	0
1	5026	0.451	0
1	5037	0.452	0
1	5048	0.453	0
1	5059	0.454	0
1	5070	0.455	0
1	5082	0.456	0
1	5093	0.457	0
1	5104	0.458	0
1	5115	0.459	0
1	5126	0.46	0
1	5137	0.461	0
1	5148	0.462	0
1	5160	0.463	0
1	5171	0.464	24
1	5182	0.465	0
1	5193	0.466	0
1	5204	0.467	0
1	5215	0.468	0
1	5226	0.469	0
1	5237	0.47	0
1	5248	0.471	0
1	5259	0.472	0
1	5271	0.473	0
1	5282	0.474	56
1	5293	0.475	0
1	5304	0.476	0
1	5315	0.477	0
1	5326	0.478	0
1	5337	0.479	0
1	5348	0.48	0
1	5359	0.481	0
1	5370	0.482	0
1	5381	0.483	0
1	5392	0.484	0
1	5403	0.485	0
1	5414	0.486	0
1	5425	0.487	0
1	5436	0.488	0
1	5447	0.489	0
1	5459	0.49	0
1	5470	0.491	66
1	5482	0.492	0
1	5493	0.493	4
1	5504	0.494	0
1	5515	0.495	0
1	5526	0.496	0
1	5537	0.497	0
1	5548	0.498	0
1	5559	0.499	0
1	5570	0.5	0
1	5581	0.501	0
1	5592	0.502	0
1	5603	0.503	0
1	5614	0.504	0
1	5625	0.505	0
1	5636	0.506	0
1	5647	0.507	0
1	5658	0.508	0
1	5670	0.509	0
1	5681	0.51	1
1	5692	0.511	0
1	5704	0.512	0
1	5716	0.513	7
1	5728	0.514	53
1	5739	0.515	71
1	5750	0.516	0
1	5761	0.517	0
1	5773	0.518	0
1	5784	0.519	3
1	5795	0.52	0
1	5806	0.521	0
1	5818	0.522	0
1	5829	0.523	0
1	5840	0.524	0
1	5851	0.525	0
1	5862	0.526	0
1	5873	0.527	0
1	5884	0.528	0
1	5895	0.529	0
1	5906	0.53	0
1	5917	0.531	0
1	5928	0.532	0
1	5939	0.533	0
1	5950	0.534	0
1	5961	0.535	0
1	5972	0.536	0
1	5984	0.537	0
1	5995	0.538	8
1	6007	0.539	0
1	6018	0.54	73
1	6029	0.541	0
1	6040	0.542	0
1	6051	0.543	0
1	6062	0.544	0
1	6073	0.545	0
1	6084	0.546	0
1	6096	0.547	0
1	6107	0.548	0
1	6118	0.549	0
1	6129	0.55	0
1	6140	0.551	0
1	6151	0.552	0
1	6162	0.553	0
1	6174	0.554	0
1	6185	0.555	21
1	6196	0.556	0
1	6207	0.557	0
1	6218	0.558	0
1	6229	0.559	0
1	6240	0.56	0
1	6251	0.561	0
1	6263	0.562	0
1	6275	0.563	31
1	6286	0.564	37
1	6299	0.565	0
1	6310	0.566	46
1	6322	0.567	0
1	6333	0.568	69
1	6344	0.569	0
1	6355	0.57	0
1	6366	0.571	0
1	6377	0.572	0
1	6388	0.573	0
1	6399	0.574	0
1	6410	0.575	0
1	6421	0.576	0
1	6432	0.577	0
1	6443	0.578	0
1	6455	0.579	0
1	6466	0.58	58
1	6477	0.581	0
1	6488	0.582	0
1	6499	0.583	0
1	6510	0.584	0
1	6521	0.585	0
1	6532	0.586	0
1	6543	0.587	0
1	6554	0.588	0
1	6565	0.589	0
1	6576	0.59	0
1	6587	0.591	0
1	6598	0.592	0
1	6609	0.593	0
1	6621	0.594	0
1	6632	0.595	14
1	6643	0.596	0
1	6654	0.597	0
1	6665	0.598	0
1	6676	0.599	0
1	6687	0.6	0
1	6698	0.601	0
1	6709	0.602	0
1	6721	0.603	0
1	6732	0.604	11
1	6743	0.605	0
1	6755	0.606	0
1	6766	0.607	24
1	6777	0.608	0
1	6788	0.609	0
1	6799	0.61	0
1	6810	0.611	0
1	6822	0.612	0
1	6833	0.613	8
1	6844	0.614	0
1	6855	0.615	0
1	6866	0.616	0
1	6877	0.617	0
1	6888	0.618	0
1	6899	0.619	0
1	6910	0.62	0
1	6921	0.621	0
1	6932	0.622	0
1	6943	0.623	0
1	6954	0.624	0
1	6965	0.625	0
1	6976	0.626	0
1	6987	0.627	0
1	6999	0.628	0
1	7011	0.629	25
1	7022	0.63	75
1	7033	0.631	0
1	7044	0.632	0
1	7055	0.633	0
1	7066	0.634	0
1	7078	0.635	0
1	7090	0.636	21
1	7101	0.637	33
1	7112	0.638	0
1	7123	0.639	0
1	7134	0.64	0
1	7145	0.641	0
1	7156	0.642	0
1	7168	0.643	0
1	7179	0.644	13
1	7190	0.645	0
1	7201	0.646	0
1	7214	0.647	0
1	7225	0.648	127
1	7237	0.649	0
1	7248	0.65	25
1	7259	0.651	0
1	7271	0.652	0
1	7282	0.653	0
1	7294	0.654	0
1	7305	0.655	11
1	7317	0.656	0
1	7328	0.657	55
1	7339	0.658	0
1	7350	0.659	0
1	7361	0.66	0
1	7373	0.661	0
1	7384	0.662	71
1	7395	0.663	0
1	7406	0.664	0
1	7417	0.665	0
1	7428	0.666	0
1	7439	0.667	0
1	7450	0.668	0
1	7461	0.669	0
1	7472	0.67	0
1	7483	0.671	0
1	7494	0.672	0
1	7505	0.673	0
1	7516	0.674	0
1	7527	0.675	0
1	7538	0.676	0
1	7549	0.677	0
1	7560	0.678	0
1	7571	0.679	0
1	7582	0.68	0
1	7593	0.681	0
1	7604	0.682	0
1	7615	0.683	0
1	7626	0.684	0
1	7637	0.685	0
1	7648	0.686	0
1	7659	0.687	0
1	7670	0.688	0
1	7681	0.689	0
1	7692	0.69	0
1	7703	0.691	0
1	7714	0.692	0
1	7725	0.693	0
1	7736	0.694	0
1	7747	0.695	0
1	7758	0.696	0
1	7770	0.697	0
1	7781	0.698	67
1	7792	0.699	0
1	7803	0.7	0
1	7814	0.701	0
1	7825	0.702	0
1	7837	0.703	0
1	7849	0.704	72
1	7860	0.705	49
1	7872	0.706	0
1	7883	0.707	55
1	7894	0.708	0
1	7905	0.709	0
1	7916	0.71	0
1	7927	0.711	0
1	7938	0.712	0
1	7949	0.713	0
1	7960	0.714	0
1	7971	0.715	0
1	7982	0.716	0
1	7993	0.717	0
1	8004	0.718	0
1	8015	0.719	0
1	8027	0.72	0
1	8038	0.721	16
1	8049	0.722	0
1	8060	0.723	0
1	8071	0.724	0
1	8082	0.725	0
1	8093	0.726	0
1	8105	0.727	0
1	8116	0.728	6
1	8127	0.729	0
1	8138	0.73	0
1	8150	0.731	0
1	8161	0.732	18
1	8173	0.733	0
1	8184	0.734	43
1	8195	0.735	0
1	8206	0.736	0
1	8217	0.737	0
1	8228	0.738	0
1	8239	0.739	0
1	8250	0.74	0
1	8261	0.741	0
1	8272	0.742	0
1	8283	0.743	0
1	8294	0.744	0
1	8305	0.745	0
1	8317	0.746	0
1	8328	0.747	0
1	8339	0.748	0
1	8351	0.749	0
1	8362	0.75	49
1	8373	0.751	0
1	8384	0.752	0
1	8395	0.753	0
1	8406	0.754	0
1	8417	0.755	0
1	8428	0.756	0
1	8439	0.757	0
1	8450	0.758	0
1	8461	0.759	0
1	8472	0.76	0
1	8483	0.761	0
1	8495	0.762	0
1	8506	0.763	23
1	8517	0.764	0
1	8528	0.765	0
1	8539	0.766	0
1	8550	0.767	0
1	8561	0.768	0
1	8573	0.769	0
1	8584	0.77	14
1	8595	0.771	0
1	8606	0.772	0
1	8617	0.773	0
1	8628	0.774	0
1	8639	0.775	0
1	8650	0.776	0
1	8662	0.777	0
1	8673	0.778	0
1	8684	0.779	0
1	8695	0.78	0
1	8706	0.781	0
1	8717	0.782	0
1	8728	0.783	0
1	8739	0.784	0
1	8750	0.785	0
1	8762	0.786	0
1	8773	0.787	11
1	8784	0.788	0
1	8795	0.789	0
1	8806	0.79	0
1	8817	0.791	0
1	8828	0.792	0
1	8839	0.793	0
1	8851	0.794	0
1	8862	0.795	56
1	8873	0.796	0
1	8884	0.797	0
1	8895	0.798	0
1	8906	0.799	0
1	8917	0.8	0
1	8928	0.801	0
1	8940	0.802	0
1	8951	0.803	62
1	8962	0.804	0
1	8973	0.805	0
1	8984	0.806	0
1	8995	0.807	0
1	9006	0.808	0
1	9017	0.809	0
1	9028	0.81	0
1	9039	0.811	0
1	9050	0.812	0
1	9061	0.813	0
1	9072	0.814	0
1	9083	0.815	0
1	9095	0.816	0
1	9106	0.817	57
1	9117	0.818	0
1	9128	0.819	0
1	9140	0.82	0
1	9152	0.821	22
1	9163	0.822	26
1	9174	0.823	0
1	9185	0.824	0
1	9196	0.825	0
1	9208	0.826	0
1	9219	0.827	15
1	9230	0.828	0
1	9241	0.829	0
1	9253	0.83	0
1	9264	0.831	0
1	9275	0.832	0
1	9286	0.833	0
1	9297	0.834	0
1	9308	0.835	0
1	9319	0.836	0
1	9330	0.837	0
1	9341	0.838	0
1	9352	0.839	0
1	9363	0.84	0
1	9374	0.841	0
1	9385	0.842	0
1	9397	0.843	0
1	9408	0.844	0
1	9419	0.845	0
1	9430	0.846	0
1	9441	0.847	0
1	9453	0.848	0
1	9464	0.849	0
1	9475	0.85	0
1	9487	0.851	0
1	9498	0.852	57
1	9509	0.853	0
1	9520	0.854	0
1	9531	0.855	0
1	9542	0.856	0
1	9555	0.857	0
1	9566	0.858	76
1	9577	0.859	0
1	9588	0.86	0
1	9599	0.861	0
1	9610	0.862	0
1	9622	0.863	0
1	9633	0.864	25
1	9644	0.865	0
1	9655	0.866	0
1	9666	0.867	0
1	9677	0.868	0
1	9688	0.869	0
1	9700	0.87	0
1	9711	0.871	10
1	9722	0.872	0
1	9735	0.873	0
1	9746	0.874	139
1	9758	0.875	0
1	9769	0.876	54
1	9781	0.877	0
1	9792	0.878	0
1	9803	0.879	0
1	9815	0.88	0
1	9826	0.881	37
1	9838	0.882	0
1	9849	0.883	22
1	9860	0.884	0
1	9871	0.885	0
1	9882	0.886	0
1	9893	0.887	0
1	9904	0.888	0
1	9915	0.889	0
1	9926	0.89	0
1	9938	0.891	0
1	9949	0.892	41
1	9960	0.893	0
1	9972	0.894	0
1	9983	0.895	50
1	9994	0.896	0
1	10005	0.897	0
1	10016	0.898	0
1	10027	0.899	0
1	10038	0.9	0
1	10049	0.901	0
1	10060	0.902	0
1	10071	0.903	0
1	10082	0.904	0
1	10093	0.905	0
1	10104	0.906	0
1	10115	0.907	0
1	10126	0.908	0
1	10137	0.909	0
1	10148	0.91	0
1	10160	0.911	0
1	10171	0.912	48
1	10182	0.913	0
1	10193	0.914	0
1	10204	0.915	0
1	10215	0.916	0
1	10226	0.917	0
1	10237	0.918	0
1	10248	0.919	0
1	10259	0.92	0
1	10270	0.921	0
1	10281	0.922	0
1	10292	0.923	0
1	10303	0.924	0
1	10314	0.925	0
1	10325	0.926	0
1	10336	0.927	0
1	10348	0.928	0
1	10359	0.929	41
1	10370	0.93	0
1	10381	0.931	0
1	10392	0.932	0
1	10403	0.933	0
1	10414	0.934	0
1	10425	0.935	0
1	10436	0.936	0
1	10447	0.937	0
1	10458	0.938	0
1	10469	0.939	0
1	10480	0.94	0
1	10491	0.941	0
1	10502	0.942	0
1	10513	0.943	0
1	10524	0.944	0
1	10536	0.945	0
1	10547	0.946	46
1	10559	0.947	0
1	10570	0.948	17
1	10581	0.949	0
1	10592	0.95	0
1	10603	0.951	0
1	10614	0.952	0
1	10626	0.953	0
1	10637	0.954	29
1	10648	0.955	0
1	10660	0.956	0
1	10671	0.957	46
1	10682	0.958	0
1	10693	0.959	0
1	10704	0.96	0
1	10716	0.961	0
1	10728	0.962	0
1	10739	0.963	67
1	10751	0.964	0
1	10762	0.965	47
1	10773	0.966	0
1	10784	0.967	0
1	10796	0.968	0
1	10807	0.969	1
1	10818	0.97	0
1	10829	0.971	0
1	10840	0.972	0
1	10851	0.973	0
1	10862	0.974	0
1	10873	0.975	0
1	10884	0.976	0
1	10895	0.977	0
1	10906	0.978	0
1	10918	0.979	0
1	10930	0.98	30
1	10942	0.981	64
1	10953	0.982	36
1	10964	0.983	0
1	10975	0.984	0
1	10987	0.985	0
1	10998	0.986	54
1	11010	0.987	0
1	11022	0.988	0
1	11034	0.989	3
1	11045	0.99	49
1	11056	0.991	0
1	11067	0.992	0
1	11078	0.993	0
1	11089	0.994	0
1	11100	0.995	0
1	11112	0.996	0
1	11123	0.997	55
1	11135	0.998	0
1	11146	0.999	33
1	11158	1	0
1	11169	1.001	29
1	11180	1.002	0
1	11191	1.003	0
1	11202	1.004	0
1	11213	1.005	0
1	11225	1.006	0
1	11236	1.007	56
1	11247	1.008	0
1	11258	1.009	0
1	11269	1.01	0
1	11280	1.011	0
1	11291	1.012	0
1	11303	1.013	0
1	11314	1.014	32
1	11325	1.015	0
1	11336	1.016	0
1	11347	1.017	0
1	11358	1.018	0
1	11369	1.019	0
1	11380	1.02	0
1	11391	1.021	0
1	11402	1.022	0
1	11413	1.023	0
1	11424	1.024	0
1	11435	1.025	0
1	11446	1.026	0
1	11457	1.027	0
1	11468	1.028	0
1	11479	1.029	0
1	11490	1.03	0
1	11501	1.031	0
1	11512	1.032	0
1	11523	1.033	0
1	11534	1.034	0
1	11545	1.035	0
1	11556	1.036	0
1	11567	1.037	0
1	11578	1.038	0
1	11589	1.039	0
1	11600	1.04	0
1	11611	1.041	0
1	11622	1.042	0
1	11633	1.043	0
1	11644	1.044	0
1	11655	1.045	0
1	11666	1.046	0
1	11677	1.047	0
1	11688	1.048	0
1	11699	1.049	0
1	11710	1.05	0
1	11721	1.051	0
1	11732	1.052	0
1	11744	1.053	0
1	11755	1.054	29
1	11766	1.055	0
1	11777	1.056	0
1	11788	1.057	0
1	11799	1.058	0
1	11810	1.059	0
1	11821	1.06	0
1	11832	1.061	0
1	11843	1.062	0
1	11854	1.063	0
1	11865	1.064	0
1	11876	1.065	0
1	11887	1.066	0
1	11898	1.067	0
1	11909	1.068	0
1	11920	1.069	0
1	11931	1.07	0
1	11942	1.071	0
1	11953	1.072	0
1	11964	1.073	0
1	11975	1.074	0
1	11987	1.075	0
1	11998	1.076	75
1	12009	1.077	0
1	12020	1.078	0
1	12031	1.079	0
1	12042	1.08	0
1	12053	1.081	0
1	12064	1.082	0
1	12075	1.083	0
1	12086	1.084	0
1	12098	1.085	0
1	12109	1.086	9
1	12120	1.087	0
1	12131	1.088	0
1	12142	1.089	0
1	12153	1.09	0
1	12164	1.091	0
1	12175	1.092	0
1	12187	1.093	0
1	12198	1.094	33
1	12209	1.095	0
1	12220	1.096	0
1	12231	1.097	0
1	12243	1.098	0
1	12254	1.099	0
1	12265	1.1	0
1	12276	1.101	0
1	12287	1.102	0
1	12298	1.103	0
1	12310	1.104	0
1	12321	1.105	51
1	12332	1.106	0
1	12343	1.107	0
1	12354	1.108	0
1	12365	1.109	0
1	12376	1.11	0
1	12388	1.111	0
1	12399	1.112	42
1	12410	1.113	0
1	12421	1.114	0
1	12432	1.115	0
1	12443	1.116	0
1	12454	1.117	0
1	12465	1.118	0
1	12476	1.119	0
1	12487	1.12	0
1	12499	1.121	0
1	12510	1.122	65
1	12521	1.123	0
1	12532	1.124	0
1	12543	1.125	0
1	12554	1.126	0
1	12565	1.127	0
1	12576	1.128	0
1	12588	1.129	0
1	12599	1.13	25
1	12610	1.131	0
1	12621	1.132	0
1	12632	1.133	0
1	12643	1.134	0
1	12654	1.135	0
1	12665	1.136	0
1	12677	1.137	0
1	12688	1.138	21
1	12699	1.139	0
1	12710	1.14	0
1	12721	1.141	0
1	12733	1.142	0
1	12744	1.143	45
1	12755	1.144	0
1	12766	1.145	0
1	12777	1.146	0
1	12788	1.147	0
1	12799	1.148	0
1	12810	1.149	0
1	12821	1.15	0
1	12832	1.151	0
1	12843	1.152	0
1	12854	1.153	0
1	12865	1.154	0
1	12877	1.155	0
1	12888	1.156	16
1	12899	1.157	0
1	12911	1.158	0
1	12922	1.159	0
1	12933	1.16	0
1	12945	1.161	0
1	12956	1.162	15
1	12967	1.163	0
1	12978	1.164	0
1	12989	1.165	0
1	13000	1.166	0
1	13011	1.167	0
1	13022	1.168	0
1	13033	1.169	0
1	13044	1.17	0
1	13055	1.171	0
1	13066	1.172	0
1	13077	1.173	0
1	13088	1.174	0
1	13099	1.175	0
1	13110	1.176	0
1	13121	1.177	0
1	13132	1.178	0
1	13143	1.179	0
1	13154	1.18	0
1	13165	1.181	0
1	13176	1.182	0
1	13187	1.183	0
1	13198	1.184	0
1	13209	1.185	0
1	13220	1.186	0
1	13231	1.187	0
1	13242	1.188	0
1	13253	1.189	0
1	13264	1.19	0
1	13275	1.191	0
1	13287	1.192	0
1	13298	1.193	20
1	13309	1.194	0
1	13320	1.195	0
1	13331	1.196	0
1	13342	1.197	0
1	13353	1.198	0
1	13364	1.199	0
1	13375	1.2	0
1	13386	1.201	0
1	13397	1.202	0
1	13408	1.203	0
1	13419	1.204	0
1	13430	1.205	0
1	13441	1.206	0
1	13452	1.207	0
1	13463	1.208	0
1	13474	1.209	0
1	13486	1.21	0
1	13497	1.211	27
1	13508	1.212	0
1	13520	1.213	0
1	13531	1.214	8
1	13542	1.215	0
1	13553	1.216	0
1	13564	1.217	0
1	13575	1.218	0
1	13586	1.219	0
1	13597	1.22	0
1	13608	1.221	0
1	13619	1.222	0
1	13630	1.223	0
1	13641	1.224	0
1	13652	1.225	0
1	13663	1.226	0
1	13674	1.227	0
1	13685	1.228	0
1	13696	1.229	0
1	13707	1.23	0
1	13718	1.231	0
1	13729	1.232	0
1	13740	1.233	0
1	13751	1.234	0
1	13762	1.235	0
1	13773	1.236	0
1	13784	1.237	0
1	13795	1.238	0
1	13806	1.239	0
1	13817	1.24	0
1	13828	1.241	0
1	13839	1.242	0
1	13851	1.243	0
1	13862	1.244	54
1	13873	1.245	0
1	13884	1.246	0
1	13896	1.247	0
1	13907	1.248	48
1	13918	1.249	0
1	13929	1.25	0
1	13940	1.251	0
1	13951	1.252	0
1	13962	1.253	0
1	13973	1.254	0
1	13984	1.255	0
1	13995	1.256	0
1	14006	1.257	0
1	14017	1.258	0
1	14029	1.259	0
1	14040	1.26	61
1	14051	1.261	0
1	14062	1.262	0
1	14073	1.263	0
1	14084	1.264	0
1	14095	1.265	0
1	14107	1.266	0
1	14118	1.267	35
1	14129	1.268	0
1	14140	1.269	0
1	14151	1.27	0
1	14162	1.271	0
1	14173	1.272	0
1	14184	1.273	0
1	14195	1.274	0
1	14206	1.275	0
1	14217	1.276	0
1	14228	1.277	0
1	14239	1.278	0
1	14250	1.279	0
1	14261	1.28	0
1	14272	1.281	0
1	14283	1.282	0
1	14294	1.283	0
1	14306	1.284	0
1	14317	1.285	33
1	14328	1.286	0
1	14339	1.287	0
1	14350	1.288	0
1	14361	1.289	0
1	14372	1.29	0
1	14383	1.291	0
1	14394	1.292	0
1	14405	1.293	0
1	14416	1.294	0
1	14427	1.295	0
1	14438	1.296	0
1	14449	1.297	0
1	14460	1.298	0
1	14471	1.299	0
1	14482	1.3	0
1	14493	1.301	0
1	14504	1.302	0
1	14515	1.303	0
1	14526	1.304	0
1	14537	1.305	0
1	14548	1.306	0
1	14559	1.307	0
1	14570	1.308	0
1	14581	1.309	0
1	14592	1.31	0
1	14603	1.311	0
1	14614	1.312	0
1	14625	1.313	0
1	14636	1.314	0
1	14647	1.315	0
1	14658	1.316	0
1	14669	1.317	0
1	14680	1.318	0
1	14691	1.319	0
1	14702	1.32	0
1	14714	1.321	0
1	14725	1.322	20
1	14736	1.323	0
1	14747	1.324	0
1	14758	1.325	0
1	14769	1.326	0
1	14780	1.327	0
1	14792	1.328	0
1	14803	1.329	0
1	14815	1.33	0
1	14826	1.331	25
1	14837	1.332	0
1	14848	1.333	0
1	14859	1.334	0
1	14870	1.335	0
1	14881	1.336	0
1	14892	1.337	0
1	14903	1.338	0
1	14914	1.339	0
1	14925	1.34	0
1	14936	1.341	0
1	14947	1.342	0
1	14958	1.343	0
1	14969	1.344	0
1	14981	1.345	0
1	14992	1.346	39
1	15003	1.347	0
1	15014	1.348	0
1	15025	1.349	0
1	15037	1.35	0
1	15048	1.351	48
1	15059	1.352	0
1	15071	1.353	0
1	15082	1.354	6
1	15093	1.355	0
1	15105	1.356	0
1	15116	1.357	64
1	15128	1.358	0
1	15139	1.359	33
1	15150	1.36	0
1	15161	1.361	0
1	15172	1.362	0
1	15183	1.363	0
1	15194	1.364	0
1	15205	1.365	0
1	15217	1.366	0
1	15228	1.367	43
1	15239	1.368	0
1	15250	1.369	0
1	15261	1.37	0
1	15272	1.371	0
1	15283	1.372	0
1	15294	1.373	0
1	15305	1.374	0
1	15317	1.375	0
1	15328	1.376	75
1	15339	1.377	0
1	15350	1.378	0
1	15361	1.379	0
1	15372	1.38	0
1	15383	1.381	0
1	15395	1.382	0
1	15406	1.383	67
1	15417	1.384	0
1	15428	1.385	0
1	15439	1.386	0
1	15450	1.387	0
1	15461	1.388	0
1	15472	1.389	0
1	15483	1.39	0
1	15494	1.391	0
1	15506	1.392	0
1	15517	1.393	31
1	15528	1.394	0
1	15539	1.395	0
1	15550	1.396	0
1	15561	1.397	0
1	15572	1.398	0
1	15583	1.399	0
1	15594	1.4	0
1	15605	1.401	0
1	15616	1.402	0
1	15628	1.403	0
1	15639	1.404	18
1	15650	1.405	0
1	15661	1.406	0
1	15672	1.407	0
1	15683	1.408	0
1	15695	1.409	0
1	15706	1.41	0
1	15717	1.411	0
1	15728	1.412	0
1	15739	1.413	0
1	15750	1.414	0
1	15761	1.415	0
1	15772	1.416	0
1	15784	1.417	0
1	15795	1.418	65
1	15807	1.419	0
1	15818	1.42	61
1	15830	1.421	0
1	15841	1.422	18
1	15852	1.423	0
1	15863	1.424	0
1	15874	1.425	0
1	15885	1.426	0
1	15896	1.427	0
1	15907	1.428	0
1	15918	1.429	0
1	15929	1.43	0
1	15940	1.431	0
1	15951	1.432	0
1	15962	1.433	0
1	15973	1.434	0
1	15984	1.435	0
1	15995	1.436	0
1	16006	1.437	0
1	16017	1.438	0
1	16028	1.439	0
1	16039	1.44	0
1	16050	1.441	0
1	16061	1.442	0
1	16072	1.443	0
1	16084	1.444	0
1	16095	1.445	40
1	16106	1.446	0
1	16118	1.447	0
1	16129	1.448	36
1	16140	1.449	0
1	16151	1.45	0
1	16162	1.451	0
1	16173	1.452	0
1	16184	1.453	0
1	16195	1.454	0
1	16206	1.455	0
1	16217	1.456	0
1	16228	1.457	0
1	16239	1.458	0
1	16250	1.459	0
1	16261	1.46	0
1	16272	1.461	0
1	16283	1.462	0
1	16294	1.463	0
1	16306	1.464	0
1	16317	1.465	29
1	16328	1.466	0
1	16339	1.467	0
1	16350	1.468	0
1	16361	1.469	0
1	16372	1.47	0
1	16383	1.471	0
1	16394	1.472	0
1	16405	1.473	0
1	16416	1.474	0
1	16427	1.475	0
1	16438	1.476	0
1	16449	1.477	0
1	16460	1.478	0
1	16471	1.479	0
1	16483	1.48	0
1	16494	1.481	23
1	16505	1.482	0
1	16516	1.483	0
1	16527	1.484	0
1	16538	1.485	0
1	16549	1.486	0
1	16560	1.487	0
1	16571	1.488	0
1	16582	1.489	0
1	16593	1.49	0
1	16604	1.491	0
1	16615	1.492	0
1	16626	1.493	0
1	16637	1.494	0
1	16648	1.495	0
1	16660	1.496	0
1	16671	1.497	39
1	16682	1.498	0
1	16693	1.499	0
1	16704	1.5	0
1	16715	1.501	0
1	16726	1.502	0
1	16738	1.503	0
1	16749	1.504	42
1	16760	1.505	0
1	16771	1.506	0
1	16783	1.507	0
1	16794	1.508	75
1	16805	1.509	0
1	16816	1.51	0
1	16827	1.511	0
1	16838	1.512	0
1	16849	1.513	0
1	16860	1.514	0
1	16871	1.515	0
1	16882	1.516	0
1	16893	1.517	0
1	16904	1.518	0
1	16915	1.519	0
1	16926	1.52	0
1	16938	1.521	0
1	16949	1.522	71
1	16960	1.523	0
1	16971	1.524	0
1	16982	1.525	0
1	16993	1.526	0
1	17005	1.527	0
1	17016	1.528	26
1	17027	1.529	0
1	17038	1.53	0
1	17050	1.531	0
1	17062	1.532	49
1	17073	1.533	0
1	17084	1.534	0
1	17095	1.535	0
1	17107	1.536	0
1	17119	1.537	63
1	17130	1.538	45
1	17141	1.539	0
1	17152	1.54	0
1	17163	1.541	0
1	17174	1.542	0
1	17185	1.543	0
1	17196	1.544	0
1	17207	1.545	0
1	17218	1.546	0
1	17229	1.547	0
1	17240	1.548	0
1	17251	1.549	0
1	17262	1.55	0
1	17273	1.551	0
1	17284	1.552	0
1	17295	1.553	0
1	17306	1.554	0
1	17317	1.555	0
1	17328	1.556	0
1	17339	1.557	0
1	17350	1.558	0
1	17363	1.559	0
1	17375	1.56	56
1	17387	1.561	17
1	17398	1.562	20
1	17409	1.563	0
1	17420	1.564	0
1	17431	1.565	0
1	17442	1.566	0
1	17453	1.567	0
1	17464	1.568	0
1	17475	1.569	0
1	17486	1.57	0
1	17497	1.571	0
1	17508	1.572	0
1	17519	1.573	0
1	17530	1.574	0
1	17541	1.575	0
1	17552	1.576	0
1	17563	1.577	0
1	17574	1.578	0
1	17585	1.579	0
1	17596	1.58	0
1	17608	1.581	0
1	17619	1.582	10
1	17630	1.583	0
1	17641	1.584	0
1	17652	1.585	0
1	17663	1.586	0
1	17674	1.587	0
1	17685	1.588	0
1	17696	1.589	0
1	17707	1.59	0
1	17719	1.591	0
1	17730	1.592	52
1	17741	1.593	0
1	17752	1.594	0
1	17763	1.595	0
1	17775	1.596	0
1	17786	1.597	11
1	17797	1.598	0
1	17808	1.599	0
1	17819	1.6	0
1	17830	1.601	0
1	17841	1.602	0
1	17852	1.603	0
1	17863	1.604	0
1	17874	1.605	0
1	17886	1.606	0
1	17897	1.607	69
1	17909	1.608	0
1	17920	1.609	24
1	17931	1.61	0
1	17942	1.611	0
1	17954	1.612	0
1	17965	1.613	15
1	17976	1.614	0
1	17987	1.615	0
1	17999	1.616	0
1	18010	1.617	64
1	18021	1.618	0
1	18032	1.619	0
1	18043	1.62	0
1	18054	1.621	0
1	18065	1.622	0
1	18076	1.623	0
1	18087	1.624	0
1	18098	1.625	0
1	18109	1.626	0
1	18121	1.627	0
1	18132	1.628	22
1	18143	1.629	0
1	18155	1.63	0
1	18166	1.631	47
1	18177	1.632	0
1	18189	1.633	0
1	18200	1.634	4
1	18211	1.635	0
1	18222	1.636	0
1	18233	1.637	0
1	18244	1.638	0
1	18255	1.639	0
1	18266	1.64	0
1	18277	1.641	0
1	18288	1.642	0
1	18299	1.643	0
1	18310	1.644	0
1	18322	1.645	0
1	18333	1.646	57
1	18344	1.647	0
1	18355	1.648	0
1	18367	1.649	0
1	18378	1.65	47
1	18389	1.651	0
1	18400	1.652	0
1	18411	1.653	0
1	18422	1.654	0
1	18433	1.655	0
1	18445	1.656	0
1	18456	1.657	0
1	18467	1.658	0
1	18478	1.659	0
1	18489	1.66	0
1	18500	1.661	0
1	18511	1.662	0
1	18522	1.663	0
1	18533	1.664	0
1	18544	1.665	0
1	18555	1.666	0
1	18566	1.667	0
1	18577	1.668	0
1	18588	1.669	0
1	18599	1.67	0
1	18611	1.671	0
1	18622	1.672	72
1	18633	1.673	0
1	18644	1.674	0
1	18656	1.675	0
1	18667	1.676	15
1	18678	1.677	0
1	18689	1.678	0
1	18700	1.679	0
1	18711	1.68	0
1	18723	1.681	0
1	18734	1.682	0
1	18746	1.683	0
1	18757	1.684	26
1	18768	1.685	0
1	18779	1.686	0
1	18790	1.687	0
1	18801	1.688	0
1	18812	1.689	0
1	18823	1.69	0
1	18834	1.691	0
1	18846	1.692	0
1	18857	1.693	54
1	18868	1.694	0
1	18879	1.695	0
1	18890	1.696	0
1	18901	1.697	0
1	18912	1.698	0
1	18925	1.699	0
1	18936	1.7	59
1	18947	1.701	0
1	18958	1.702	0
1	18969	1.703	0
1	18980	1.704	0
1	18991	1.705	0
1	19003	1.706	0
1	19014	1.707	45
1	19026	1.708	0
1	19038	1.709	38
1	19049	1.71	23
1	19060	1.711	0
1	19071	1.712	0
1	19082	1.713	0
1	19093	1.714	0
1	19104	1.715	0
1	19115	1.716	0
1	19126	1.717	0
1	19137	1.718	0
1	19148	1.719	0
1	19159	1.72	0
1	19170	1.721	0
1	19182	1.722	0
1	19193	1.723	55
1	19204	1.724	0
1	19215	1.725	0
1	19226	1.726	0
1	19237	1.727	0
1	19248	1.728	0
1	19259	1.729	0
1	19270	1.73	0
1	19281	1.731	0
1	19292	1.732	0
1	19304	1.733	0
1	19315	1.734	13
1	19326	1.735	0
1	19337	1.736	0
1	19349	1.737	0
1	19360	1.738	60
1	19371	1.739	0
1	19382	1.74	0
1	19393	1.741	0
1	19404	1.742	0
1	19415	1.743	0
1	19426	1.744	0
1	19437	1.745	0
1	19449	1.746	0
1	19460	1.747	27
1	19472	1.748	0
1	19483	1.749	72
1	19494	1.75	0
1	19505	1.751	0
1	19516	1.752	0
1	19527	1.753	0
1	19538	1.754	0
1	19549	1.755	0
1	19560	1.756	0
1	19571	1.757	0
1	19582	1.758	0
1	19593	1.759	0
1	19604	1.76	0
1	19616	1.761	0
1	19627	1.762	40
1	19638	1.763	0
1	19649	1.764	0
1	19660	1.765	0
1	19671	1.766	0
1	19682	1.767	0
1	19693	1.768	0
1	19704	1.769	0
1	19715	1.77	0
1	19726	1.771	0
1	19737	1.772	0
1	19748	1.773	0
1	19759	1.774	0
1	19770	1.775	0
1	19781	1.776	0
1	19792	1.777	0
1	19803	1.778	0
1	19814	1.779	0
1	19825	1.78	0
1	19836	1.781	0
1	19847	1.782	0
1	19858	1.783	0
1	19870	1.784	0
1	19881	1.785	0
1	19892	1.786	0
1	19903	1.787	0
1	19914	1.788	0
1	19925	1.789	0
1	19936	1.79	0
1	19948	1.791	0
1	19959	1.792	39
1	19970	1.793	0
1	19981	1.794	0
1	19992	1.795	0
1	20004	1.796	0
1	20016	1.797	70
1	20027	1.798	34
1	20038	1.799	0
1	20049	1.8	0
1	20060	1.801	0
1	20072	1.802	0
1	20083	1.803	44
1	20094	1.804	0
1	20105	1.805	0
1	20117	1.806	0
1	20128	1.807	27
1	20139	1.808	0
1	20150	1.809	0
1	20161	1.81	0
1	20172	1.811	0
1	20183	1.812	0
1	20194	1.813	0
1	20205	1.814	0
1	20216	1.815	0
1	20227	1.816	0
1	20239	1.817	0
1	20250	1.818	57
1	20261	1.819	0
1	20272	1.82	0
1	20283	1.821	0
1	20295	1.822	0
1	20306	1.823	70
1	20318	1.824	0
1	20329	1.825	74
1	20340	1.826	0
1	20351	1.827	0
1	20362	1.828	0
1	20374	1.829	0
1	20385	1.83	0
1	20396	1.831	0
1	20407	1.832	0
1	20418	1.833	0
1	20429	1.834	0
1	20440	1.835	0
1	20451	1.836	0
1	20462	1.837	0
1	20473	1.838	0
1	20484	1.839	0
1	20495	1.84	0
1	20506	1.841	0
1	20517	1.842	0
1	20528	1.843	0
1	20539	1.844	0
1	20550	1.845	0
1	20561	1.846	0
1	20572	1.847	0
1	20583	1.848	0
1	20595	1.849	0
1	20606	1.85	0
1	20618	1.851	0
1	20629	1.852	44
1	20641	1.853	0
1	20653	1.854	2
1	20664	1.855	27
1	20675	1.856	0
1	20686	1.857	0
1	20697	1.858	0
1	20708	1.859	0
1	20719	1.86	0
1	20730	1.861	0
1	20741	1.862	0
1	20752	1.863	0
1	20763	1.864	0
1	20774	1.865	0
1	20785	1.866	0
1	20796	1.867	0
1	20807	1.868	0
1	20818	1.869	0
1	20829	1.87	0
1	20840	1.871	0
1	20851	1.872	0
1	20862	1.873	0
1	20873	1.874	0
1	20884	1.875	0
1	20895	1.876	0
1	20906	1.877	0
1	20917	1.878	0
1	20928	1.879	0
1	20939	1.88	0
1	20950	1.881	0
1	20961	1.882	0
1	20972	1.883	0
1	20983	1.884	0
1	20994	1.885	0
1	21005	1.886	0
1	21016	1.887	0
1	21028	1.888	0
1	21039	1.889	31
1	21050	1.89	0
1	21061	1.891	0
1	21072	1.892	0
1	21083	1.893	0
1	21094	1.894	0
1	21105	1.895	0
1	21116	1.896	0
1	21127	1.897	0
1	21138	1.898	0
1	21149	1.899	0
1	21160	1.9	0
1	21171	1.901	0
1	21182	1.902	0
1	21194	1.903	0
1	21205	1.904	65
1	21216	1.905	0
1	21227	1.906	0
1	21238	1.907	0
1	21249	1.908	0
1	21260	1.909	0
1	21271	1.91	0
1	21283	1.911	0
1	21294	1.912	0
1	21305	1.913	0
1	21316	1.914	0
1	21327	1.915	0
1	21338	1.916	0
1	21349	1.917	0
1	21360	1.918	0
1	21371	1.919	0
1	21382	1.92	0
1	21393	1.921	0
1	21404	1.922	0
1	21415	1.923	0
1	21426	1.924	0
1	21437	1.925	0
1	21448	1.926	0
1	21459	1.927	0
1	21470	1.928	0
1	21481	1.929	0
1	21492	1.93	0
1	21503	1.931	0
1	21514	1.932	0
1	21525	1.933	0
1	21536	1.934	0
1	21548	1.935	0
1	21559	1.936	0
1	21570	1.937	0
1	21581	1.938	0
1	21592	1.939	0
1	21603	1.94	0
1	21614	1.941	0
1	21625	1.942	0
1	21636	1.943	0
1	21647	1.944	0
1	21658	1.945	0
1	21669	1.946	0
1	21680	1.947	0
1	21691	1.948	0
1	21703	1.949	0
1	21714	1.95	0
1	21725	1.951	0
1	21736	1.952	0
1	21747	1.953	0
1	21758	1.954	0
1	21769	1.955	0
1	21780	1.956	0
1	21791	1.957	0
1	21802	1.958	0
1	21813	1.959	0
1	21824	1.96	0
1	21835	1.961	0
1	21846	1.962	0
1	21857	1.963	0
1	21868	1.964	0
1	21879	1.965	0
1	21890	1.966	0
1	21901	1.967	0
1	21912	1.968	0
1	21923	1.969	0
1	21934	1.97	0
1	21945	1.971	0
1	21956	1.972	0
1	21967	1.973	0
1	21978	1.974	0
1	21989	1.975	0
1	22000	1.976	0
1	22011	1.977	0
1	22022	1.978	0
1	22034	1.979	0
1	22045	1.98	71
1	22056	1.981	0
1	22067	1.982	0
1	22078	1.983	0
1	22089	1.984	0
1	22100	1.985	0
1	22111	1.986	0
1	22122	1.987	0
1	22133	1.988	0
1	22144	1.989	0
1	22156	1.99	0
1	22167	1.991	13
1	22178	1.992	0
1	22189	1.993	0
1	22200	1.994	0
1	22211	1.995	0
1	22222	1.996	0
1	22233	1.997	0
1	22245	1.998	0
1	22257	1.999	40
1	22268	2	49
1	22279	2.001	0
1	22290	2.002	0
1	22301	2.003	0
1	22312	2.004	0
1	22323	2.005	0
1	22334	2.006	0
1	22345	2.007	0
1	22356	2.008	0
1	22367	2.009	0
1	22378	2.01	0
1	22389	2.011	0
1	22400	2.012	0
1	22411	2.013	0
1	22422	2.014	0
1	22433	2.015	0
1	22444	2.016	0
1	22455	2.017	0
1	22466	2.018	0
1	22477	2.019	0
1	22488	2.02	0
1	22499	2.021	0
1	22510	2.022	0
1	22521	2.023	0
1	22532	2.024	0
1	22543	2.025	0
1	22554	2.026	0
1	22565	2.027	0
1	22576	2.028	0
1	22587	2.029	0
1	22599	2.03	0
1	22610	2.031	62
1	22622	2.032	0
1	22633	2.033	71
1	22644	2.034	0
1	22655	2.035	0
1	22666	2.036	0
1	22678	2.037	0
1	22689	2.038	14
1	22700	2.039	0
1	22711	2.04	0
1	22722	2.041	0
1	22733	2.042	0
1	22745	2.043	0
1	22756	2.044	0
1	22767	2.045	0
1	22778	2.046	0
1	22789	2.047	0
1	22800	2.048	0
1	22811	2.049	0
1	22822	2.05	0
1	22833	2.051	0
1	22844	2.052	0
1	22855	2.053	0
1	22866	2.054	0
1	22877	2.055	0
1	22888	2.056	0
1	22899	2.057	0
1	22910	2.058	0
1	22921	2.059	0
1	22932	2.06	0
1	22943	2.061	0
1	22954	2.062	0
1	22966	2.063	0
1	22977	2.064	24
1	22988	2.065	0
1	22999	2.066	0
1	23010	2.067	0
1	23021	2.068	0
1	23032	2.069	0
1	23043	2.07	0
1	23054	2.071	0
1	23065	2.072	0
1	23076	2.073	0
1	23087	2.074	0
1	23098	2.075	0
1	23109	2.076	0
1	23120	2.077	0
1	23131	2.078	0
1	23142	2.079	0
1	23153	2.08	0
1	23165	2.081	0
1	23176	2.082	23
1	23187	2.083	0
1	23198	2.084	0
1	23209	2.085	0
1	23220	2.086	0
1	23231	2.087	0
1	23242	2.088	0
1	23253	2.089	0
1	23264	2.09	0
1	23275	2.091	0
1	23286	2.092	0
1	23297	2.093	0
1	23308	2.094	0
1	23319	2.095	0
1	23330	2.096	0
1	23342	2.097	0
1	23353	2.098	67
1	23364	2.099	0
1	23375	2.1	0
1	23386	2.101	0
1	23397	2.102	0
1	23408	2.103	0
1	23419	2.104	0
1	23430	2.105	0
1	23441	2.106	0
1	23452	2.107	0
1	23463	2.108	0
1	23475	2.109	0
1	23486	2.11	54
1	23497	2.111	0
1	23508	2.112	0
1	23519	2.113	0
1	23530	2.114	0
1	23541	2.115	0
1	23552	2.116	0
1	23563	2.117	0
1	23574	2.118	0
1	23585	2.119	0
1	23596	2.12	0
1	23607	2.121	0
1	23618	2.122	0
1	23629	2.123	0
1	23640	2.124	0
1	23651	2.125	0
1	23662	2.126	0
1	23673	2.127	0
1	23684	2.128	0
1	23695	2.129	0
1	23706	2.13	0
1	23717	2.131	0
1	23728	2.132	0
1	23740	2.133	0
1	23751	2.134	10
1	23762	2.135	0
1	23773	2.136	0
1	23784	2.137	0
1	23795	2.138	0
1	23806	2.139	0
1	23817	2.14	0
1	23828	2.141	0
1	23839	2.142	0
1	23850	2.143	0
1	23861	2.144	0
1	23872	2.145	0
1	23883	2.146	0
1	23894	2.147	0
1	23905	2.148	0
1	23916	2.149	0
1	23927	2.15	0
1	23938	2.151	0
1	23949	2.152	0
1	23960	2.153	0
1	23971	2.154	0
1	23982	2.155	0
1	23993	2.156	0
1	24004	2.157	0
1	24015	2.158	0
1	24026	2.159	0
1	24037	2.16	0
1	24048	2.161	0
1	24059	2.162	0
1	24070	2.163	0
1	24081	2.164	0
1	24092	2.165	0
1	24103	2.166	0
1	24114	2.167	0
1	24125	2.168	0
1	24136	2.169	0
1	24147	2.17	0
1	24159	2.171	0
1	24170	2.172	42
1	24182	2.173	0
1	24193	2.174	58
1	24204	2.175	0
1	24215	2.176	0
1	24227	2.177	0
1	24238	2.178	12
1	24249	2.179	0
1	24261	2.18	0
1	24272	2.181	37
1	24283	2.182	0
1	24294	2.183	0
1	24306	2.184	0
1	24317	2.185	17
1	24328	2.186	0
1	24339	2.187	0
1	24350	2.188	0
1	24361	2.189	0
1	24372	2.19	0
1	24383	2.191	0
1	24394	2.192	0
1	24405	2.193	0
1	24416	2.194	0
1	24427	2.195	0
1	24438	2.196	0
1	24449	2.197	0
1	24460	2.198	0
1	24471	2.199	0
1	24482	2.2	0
1	24493	2.201	0
1	24504	2.202	0
1	24516	2.203	0
1	24527	2.204	0
1	24538	2.205	0
1	24549	2.206	0
1	24560	2.207	0
1	24571	2.208	0
1	24582	2.209	0
1	24594	2.21	0
1	24605	2.211	58
1	24616	2.212	0
1	24627	2.213	0
1	24638	2.214	0
1	24649	2.215	0
1	24660	2.216	0
1	24672	2.217	0
1	24683	2.218	36
1	24694	2.219	0
1	24705	2.22	0
1	24716	2.221	0
1	24727	2.222	0
1	24738	2.223	0
1	24749	2.224	0
1	24760	2.225	0
1	24771	2.226	0
1	24782	2.227	0
1	24793	2.228	0
1	24804	2.229	0
1	24815	2.23	0
1	24826	2.231	0
1	24837	2.232	0
1	24849	2.233	0
1	24860	2.234	42
1	24871	2.235	0
1	24882	2.236	0
1	24893	2.237	0
1	24904	2.238	0
1	24915	2.239	0
1	24926	2.24	0
1	24937	2.241	0
1	24948	2.242	0
1	24959	2.243	0
1	24970	2.244	0
1	24981	2.245	0
1	24992	2.246	0
1	25003	2.247	0
1	25014	2.248	0
1	25025	2.249	0
1	25036	2.25	0
1	25047	2.251	0
1	25058	2.252	0
1	25069	2.253	0
1	25080	2.254	0
1	25091	2.255	0
1	25102	2.256	0
1	25113	2.257	0
1	25124	2.258	0
1	25135	2.259	0
1	25146	2.26	0
1	25157	2.261	0
1	25168	2.262	0
1	25179	2.263	0
1	25190	2.264	0
1	25201	2.265	0
1	25212	2.266	0
1	25223	2.267	0
1	25235	2.268	0
1	25247	2.269	3
1	25258	2.27	0
1	25269	2.271	0
1	25281	2.272	0
1	25292	2.273	47
1	25303	2.274	0
1	25314	2.275	0
1	25326	2.276	0
1	25337	2.277	28
1	25348	2.278	0
1	25359	2.279	0
1	25370	2.28	0
1	25381	2.281	0
1	25393	2.282	0
1	25405	2.283	73
1	25416	2.284	29
1	25427	2.285	0
1	25438	2.286	0
1	25449	2.287	0
1	25461	2.288	0
1	25472	2.289	3
1	25483	2.29	0
1	25494	2.291	0
1	25505	2.292	0
1	25516	2.293	0
1	25527	2.294	0
1	25538	2.295	0
1	25549	2.296	0
1	25560	2.297	0
1	25571	2.298	0
1	25582	2.299	0
1	25593	2.3	0
1	25604	2.301	0
1	25615	2.302	0
1	25626	2.303	0
1	25637	2.304	0
1	25648	2.305	0
1	25659	2.306	0
1	25670	2.307	0
1	25681	2.308	0
1	25692	2.309	0
1	25703	2.31	0
1	25714	2.311	0
1	25725	2.312	0
1	25737	2.313	0
1	25750	2.314	14
1	25761	2.315	79
1	25772	2.316	0
1	25783	2.317	0
1	25794	2.318	0
1	25805	2.319	0
1	25816	2.32	0
1	25827	2.321	0
1	25838	2.322	0
1	25849	2.323	0
1	25860	2.324	0
1	25871	2.325	0
1	25882	2.326	0
1	25893	2.327	0
1	25904	2.328	0
1	25915	2.329	0
1	25926	2.33	0
1	25937	2.331	0
1	25949	2.332	0
1	25960	2.333	41
1	25971	2.334	0
1	25982	2.335	0
1	25993	2.336	0
1	26004	2.337	0
1	26015	2.338	0
1	26026	2.339	0
1	26037	2.34	0
1	26048	2.341	0
1	26059	2.342	0
1	26071	2.343	0
1	26083	2.344	19
1	26094	2.345	39
1	26105	2.346	0
1	26116	2.347	0
1	26127	2.348	0
1	26138	2.349	0
1	26149	2.35	0
1	26160	2.351	0
1	26171	2.352	0
1	26182	2.353	0
1	26193	2.354	0
1	26204	2.355	0
1	26215	2.356	0
1	26228	2.357	0
1	26239	2.358	111
1	26250	2.359	0
1	26261	2.36	0
1	26272	2.361	0
1	26283	2.362	0
1	26295	2.363	0
1	26306	2.364	3
1	26317	2.365	0
1	26328	2.366	0
1	26339	2.367	0
1	26350	2.368	0
1	26361	2.369	0
1	26372	2.37	0
1	26383	2.371	0
1	26395	2.372	0
1	26407	2.373	29
1	26418	2.374	0
1	26429	2.375	0
1	26440	2.376	0
1	26451	2.377	0
1	26462	2.378	0
1	26473	2.379	0
1	26484	2.38	0
1	26495	2.381	0
1	26506	2.382	0
1	26517	2.383	0
1	26528	2.384	0
1	26539	2.385	0
1	26550	2.386	0
1	26561	2.387	0
1	26572	2.388	0
1	26583	2.389	0
1	26594	2.39	0
1	26605	2.391	0
1	26616	2.392	0
1	26627	2.393	0
1	26638	2.394	0
1	26649	2.395	0
1	26660	2.396	0
1	26671	2.397	0
1	26682	2.398	0
1	26694	2.399	0
1	26705	2.4	43
1	26716	2.401	0
1	26727	2.402	0
1	26738	2.403	0
1	26749	2.404	0
1	26760	2.405	0
1	26771	2.406	0
1	26782	2.407	0
1	26793	2.408	0
1	26804	2.409	0
1	26815	2.41	0
1	26826	2.411	0
1	26837	2.412	0
1	26848	2.413	0
1	26859	2.414	0
1	26870	2.415	0
1	26881	2.416	0
1	26892	2.417	0
1	26903	2.418	0
1	26915	2.419	0
1	26926	2.42	27
1	26937	2.421	0
1	26948	2.422	0
1	26959	2.423	0
1	26970	2.424	0
1	26981	2.425	0
1	26992	2.426	0
1	27003	2.427	0
1	27014	2.428	0
1	27025	2.429	0
1	27036	2.43	0
1	27047	2.431	0
1	27058	2.432	0
1	27069	2.433	0
1	27080	2.434	0
1	27091	2.435	0
1	27102	2.436	0
1	27113	2.437	0
1	27124	2.438	0
1	27135	2.439	0
1	27146	2.44	0
1	27157	2.441	0
1	27168	2.442	0
1	27179	2.443	0
1	27190	2.444	0
1	27201	2.445	0
1	27212	2.446	0
1	27223	2.447	0
1	27234	2.448	0
1	27245	2.449	0
1	27256	2.45	0
1	27267	2.451	0
1	27278	2.452	0
1	27289	2.453	0
1	27301	2.454	0
1	27312	2.455	22
1	27324	2.456	0
1	27335	2.457	59
1	27346	2.458	0
1	27357	2.459	0
1	27368	2.46	0
1	27379	2.461	0
1	27390	2.462	0
1	27402	2.463	0
1	27413	2.464	17
1	27424	2.465	0
1	27435	2.466	0
1	27446	2.467	0
1	27457	2.468	0
1	27468	2.469	0
1	27479	2.47	0
1	27490	2.471	0
1	27501	2.472	0
1	27512	2.473	0
1	27524	2.474	0
1	27535	2.475	38
1	27546	2.476	0
1	27559	2.477	0
1	27570	2.478	35
1	27582	2.479	0
1	27593	2.48	7
1	27604	2.481	0
1	27616	2.482	0
1	27627	2.483	15
1	27638	2.484	0
1	27649	2.485	0
1	27660	2.486	0
1	27671	2.487	0
1	27682	2.488	0
1	27693	2.489	0
1	27704	2.49	0
1	27715	2.491	0
1	27727	2.492	0
1	27738	2.493	36
1	27750	2.494	0
1	27761	2.495	64
1	27773	2.496	0
1	27784	2.497	33
1	27795	2.498	0
1	27806	2.499	0
1	27817	2.5	0
1	27829	2.501	0
1	27840	2.502	50
1	27851	2.503	0
1	27862	2.504	0
1	27873	2.505	0
1	27884	2.506	0
1	27895	2.507	0
1	27907	2.508	0
1	27918	2.509	1
1	27929	2.51	0
1	27940	2.511	0
1	27951	2.512	0
1	27962	2.513	0
1	27973	2.514	0
1	27984	2.515	0
1	27995	2.516	0
1	28006	2.517	0
1	28017	2.518	0
1	28028	2.519	0
1	28039	2.52	0
1	28050	2.521	0
1	28061	2.522	0
1	28073	2.523	0
1	28084	2.524	23
1	28095	2.525	0
1	28107	2.526	0
1	28118	2.527	71
1	28129	2.528	0
1	28140	2.529	0
1	28151	2.53	0
1	28162	2.531	0
1	28173	2.532	0
1	28184	2.533	0
1	28195	2.534	0
1	28206	2.535	0
1	28217	2.536	0
1	28228	2.537	0
1	28239	2.538	0
1	28250	2.539	0
1	28261	2.54	0
1	28272	2.541	0
1	28283	2.542	0
1	28294	2.543	0
1	28305	2.544	0
1	28316	2.545	0
1	28327	2.546	0
1	28338	2.547	0
1	28350	2.548	0
1	28361	2.549	37
1	28373	2.55	0
1	28384	2.551	19
1	28395	2.552	0
1	28407	2.553	0
1	28418	2.554	28
1	28429	2.555	0
1	28440	2.556	0
1	28451	2.557	0
1	28462	2.558	0
[...]
12	98769	8.878	0
12	98780	8.879	0
12	98791	8.88	0
12	98802	8.881	0
12	98813	8.882	0
12	98824	8.883	0
12	98835	8.884	0
12	98846	8.885	0
12	98857	8.886	0
12	98868	8.887	0
12	98879	8.888	0
12	98890	8.889	0
12	98901	8.89	0
12	98912	8.891	0
12	98923	8.892	0
12	98934	8.893	0
12	98945	8.894	0
12	98956	8.895	0
12	98967	8.896	0
12	98978	8.897	0
12	98989	8.898	0
12	99000	8.899	0
12	99012	8.9	0
12	99023	8.901	0
12	99034	8.902	0
12	99045	8.903	0
12	99056	8.904	0
12	99067	8.905	0
12	99078	8.906	0
12	99089	8.907	0
12	99100	8.908	0
12	99112	8.909	0
12	99123	8.91	0
12	99134	8.911	0
12	99145	8.912	0
12	99157	8.913	0
12	99168	8.914	0
12	99179	8.915	0
12	99190	8.916	0
12	99201	8.917	0
12	99212	8.918	0
12	99223	8.919	0
12	99234	8.92	0
12	99245	8.921	0
12	99256	8.922	0
12	99267	8.923	0
12	99278	8.924	0
12	99289	8.925	0
12	99300	8.926	0
12	99311	8.927	0
12	99322	8.928	0
12	99333	8.929	0
12	99344	8.93	0
12	99355	8.931	0
12	99366	8.932	0
12	99377	8.933	0
12	99389	8.934	0
12	99400	8.935	0
12	99412	8.936	0
12	99423	8.937	0
12	99435	8.938	0
12	99446	8.939	0
12	99458	8.94	0
12	99469	8.941	0
12	99480	8.942	0
12	99491	8.943	0
12	99502	8.944	0
12	99513	8.945	0
12	99524	8.946	0
12	99535	8.947	0
12	99547	8.948	0
12	99558	8.949	0
12	99570	8.95	0
12	99581	8.951	0
12	99592	8.952	0
12	99603	8.953	0
12	99614	8.954	0
12	99625	8.955	0
12	99636	8.956	0
12	99647	8.957	0
12	99658	8.958	0
12	99671	8.959	0
12	99683	8.96	0
12	99694	8.961	0
12	99705	8.962	0
12	99716	8.963	0
12	99727	8.964	0
12	99738	8.965	0
12	99750	8.966	0
12	99761	8.967	0
12	99772	8.968	0
12	99783	8.969	0
12	99794	8.97	0
12	99805	8.971	0
12	99816	8.972	0
12	99827	8.973	0
12	99838	8.974	0
12	99849	8.975	0
12	99860	8.976	0
12	99871	8.977	0
12	99882	8.978	0
12	99893	8.979	0
12	99904	8.98	0
12	99915	8.981	0
12	99926	8.982	0
12	99937	8.983	0
12	99948	8.984	0
12	99959	8.985	0
12	99970	8.986	0
12	99982	8.987	0
12	99993	8.988	0
12	100004	8.989	0
12	100015	8.99	0
12	100026	8.991	0
12	100037	8.992	0
12	100048	8.993	0
12	100060	8.994	0
12	100071	8.995	0
12	100082	8.996	0
12	100093	8.997	0
12	100104	8.998	0
12	100115	8.999	0
12	100126	9	0
12	100137	9.001	0
12	100149	9.002	0
12	100160	9.003	0
12	100171	9.004	0
12	100182	9.005	0
12	100193	9.006	0
12	100204	9.007	0
12	100215	9.008	0
12	100226	9.009	0
12	100237	9.01	0
12	100249	9.011	0
12	100260	9.012	0
12	100272	9.013	0
12	100283	9.014	0
12	100294	9.015	0
12	100306	9.016	0
12	100317	9.017	0
12	100329	9.018	0
12	100340	9.019	0
12	100351	9.02	0
12	100362	9.021	0
12	100373	9.022	0
12	100384	9.023	0
12	100395	9.024	0
12	100406	9.025	0
12	100417	9.026	0
12	100428	9.027	0
12	100439	9.028	0
12	100450	9.029	0
12	100461	9.03	0
12	100473	9.031	0
12	100484	9.032	0
12	100495	9.033	0
12	100506	9.034	0
12	100517	9.035	0
12	100528	9.036	0
12	100539	9.037	0
12	100550	9.038	0
12	100562	9.039	0
12	100574	9.04	0
12	100585	9.041	0
12	100596	9.042	0
12	100607	9.043	0
12	100618	9.044	0
12	100629	9.045	0
12	100640	9.046	0
12	100653	9.047	0
12	100664	9.048	37
12	100676	9.049	0
12	100687	9.05	0
12	100698	9.051	0
12	100709	9.052	0
12	100720	9.053	0
12	100731	9.054	0
12	100742	9.055	0
12	100753	9.056	0
12	100765	9.057	0
12	100776	9.058	0
12	100788	9.059	0
12	100799	9.06	36
12	100810	9.061	0
12	100821	9.062	0
12	100832	9.063	0
12	100843	9.064	0
12	100854	9.065	0
12	100865	9.066	0
12	100876	9.067	0
12	100887	9.068	0
12	100898	9.069	0
12	100909	9.07	0
12	100921	9.071	0
12	100932	9.072	33
12	100943	9.073	0
12	100955	9.074	0
12	100966	9.075	0
12	100977	9.076	0
12	100989	9.077	0
12	101000	9.078	52
12	101011	9.079	0
12	101022	9.08	0
12	101033	9.081	0
12	101044	9.082	0
12	101055	9.083	0
12	101066	9.084	0
12	101077	9.085	0
12	101088	9.086	0
12	101099	9.087	0
12	101110	9.088	0
12	101121	9.089	0
12	101132	9.09	0
12	101144	9.091	0
12	101155	9.092	0
12	101166	9.093	0
12	101177	9.094	0
12	101188	9.095	0
12	101199	9.096	0
12	101210	9.097	0
12	101221	9.098	0
12	101232	9.099	0
12	101243	9.1	0
12	101254	9.101	0
12	101265	9.102	0
12	101276	9.103	0
12	101287	9.104	0
12	101298	9.105	0
12	101309	9.106	0
12	101320	9.107	0
12	101331	9.108	0
12	101342	9.109	0
12	101353	9.11	0
12	101364	9.111	0
12	101375	9.112	0
12	101386	9.113	0
12	101397	9.114	0
12	101408	9.115	0
12	101419	9.116	0
12	101430	9.117	0
12	101441	9.118	0
12	101452	9.119	0
12	101463	9.12	0
12	101474	9.121	0
12	101485	9.122	0
12	101496	9.123	0
12	101507	9.124	0
12	101518	9.125	0
12	101529	9.126	0
12	101540	9.127	0
12	101551	9.128	0
12	101562	9.129	0
12	101573	9.13	0
12	101584	9.131	0
12	101595	9.132	0
12	101606	9.133	0
12	101618	9.134	0
12	101629	9.135	0
12	101640	9.136	0
12	101651	9.137	0
12	101662	9.138	0
12	101673	9.139	0
12	101684	9.14	0
12	101695	9.141	0
12	101706	9.142	0
12	101717	9.143	0
12	101728	9.144	0
12	101739	9.145	0
12	101750	9.146	0
12	101761	9.147	0
12	101772	9.148	0
12	101783	9.149	0
12	101794	9.15	0
12	101805	9.151	0
12	101816	9.152	0
12	101827	9.153	0
12	101838	9.154	0
12	101849	9.155	0
12	101860	9.156	0
12	101871	9.157	0
12	101882	9.158	0
12	101893	9.159	0
12	101904	9.16	0
12	101915	9.161	0
12	101926	9.162	0
12	101937	9.163	0
12	101948	9.164	0
12	101959	9.165	0
12	101970	9.166	0
12	101981	9.167	0
12	101992	9.168	0
12	102003	9.169	0
12	102014	9.17	0
12	102025	9.171	0
12	102036	9.172	0
12	102047	9.173	0
12	102058	9.174	0
12	102069	9.175	0
12	102080	9.176	0
12	102092	9.177	0
12	102103	9.178	0
12	102114	9.179	0
12	102126	9.18	0
12	102137	9.181	0
12	102148	9.182	0
12	102159	9.183	0
12	102170	9.184	0
12	102181	9.185	0
12	102192	9.186	0
12	102203	9.187	0
12	102214	9.188	0
12	102225	9.189	0
12	102236	9.19	0
12	102247	9.191	0
12	102258	9.192	0
12	102269	9.193	0
12	102280	9.194	0
12	102291	9.195	0
12	102303	9.196	0
12	102314	9.197	0
12	102325	9.198	0
12	102336	9.199	0
12	102347	9.2	0
12	102358	9.201	0
12	102369	9.202	0
12	102380	9.203	0
12	102392	9.204	0
12	102403	9.205	36
12	102414	9.206	0
12	102425	9.207	0
12	102437	9.208	0
12	102448	9.209	0
12	102459	9.21	0
12	102470	9.211	0
12	102482	9.212	0
12	102494	9.213	0
12	102505	9.214	0
12	102516	9.215	0
12	102527	9.216	0
12	102538	9.217	0
12	102549	9.218	0
12	102560	9.219	0
12	102571	9.22	0
12	102582	9.221	0
12	102593	9.222	0
12	102604	9.223	0
12	102615	9.224	0
12	102626	9.225	0
12	102637	9.226	0
12	102648	9.227	0
12	102659	9.228	0
12	102670	9.229	0
12	102681	9.23	0
12	102692	9.231	0
12	102703	9.232	0
12	102714	9.233	0
12	102725	9.234	0
12	102736	9.235	0
12	102747	9.236	0
12	102758	9.237	0
12	102769	9.238	0
12	102780	9.239	0
12	102791	9.24	0
12	102802	9.241	0
12	102814	9.242	0
12	102825	9.243	0
12	102837	9.244	0
12	102849	9.245	0
12	102860	9.246	0
12	102871	9.247	0
12	102883	9.248	0
12	102894	9.249	0
12	102905	9.25	0
12	102916	9.251	0
12	102927	9.252	0
12	102940	9.253	0
12	102952	9.254	0
12	102963	9.255	0
12	102975	9.256	0
12	102986	9.257	0
12	102997	9.258	0
12	103008	9.259	0
12	103019	9.26	0
12	103030	9.261	0
12	103041	9.262	0
12	103052	9.263	0
12	103063	9.264	0
12	103074	9.265	0
12	103085	9.266	0
12	103096	9.267	0
12	103107	9.268	0
12	103118	9.269	0
12	103130	9.27	0
12	103141	9.271	0
12	103152	9.272	0
12	103163	9.273	0
12	103174	9.274	0
12	103185	9.275	0
12	103196	9.276	0
12	103208	9.277	0
12	103219	9.278	0
12	103230	9.279	0
12	103241	9.28	0
12	103252	9.281	0
12	103263	9.282	0
12	103274	9.283	0
12	103285	9.284	0
12	103296	9.285	0
12	103307	9.286	0
12	103318	9.287	0
12	103329	9.288	0
12	103340	9.289	0
12	103351	9.29	0
12	103362	9.291	0
12	103373	9.292	0
12	103384	9.293	0
12	103395	9.294	0
12	103406	9.295	0
12	103418	9.296	0
12	103429	9.297	0
12	103440	9.298	0
12	103452	9.299	0
12	103463	9.3	0
12	103474	9.301	0
12	103485	9.302	0
12	103496	9.303	0
12	103507	9.304	0
12	103518	9.305	0
12	103529	9.306	0
12	103540	9.307	0
12	103551	9.308	0
12	103562	9.309	0
12	103573	9.31	0
12	103584	9.311	0
12	103596	9.312	0
12	103607	9.313	0
12	103618	9.314	0
12	103629	9.315	0
12	103641	9.316	0
12	103652	9.317	0
12	103663	9.318	0
12	103674	9.319	0
12	103685	9.32	0
12	103696	9.321	0
12	103707	9.322	0
12	103718	9.323	0
12	103729	9.324	0
12	103740	9.325	0
12	103752	9.326	0
12	103763	9.327	0
12	103774	9.328	0
12	103785	9.329	0
12	103796	9.33	0
12	103807	9.331	0
12	103818	9.332	0
12	103829	9.333	0
12	103841	9.334	0
12	103853	9.335	7
12	103864	9.336	0
12	103875	9.337	0
12	103887	9.338	0
12	103898	9.339	0
12	103909	9.34	0
12	103920	9.341	0
12	103932	9.342	0
12	103943	9.343	0
12	103954	9.344	0
12	103965	9.345	0
12	103976	9.346	0
12	103988	9.347	0
12	104000	9.348	0
12	104011	9.349	0
12	104022	9.35	0
12	104033	9.351	0
12	104044	9.352	0
12	104055	9.353	0
12	104066	9.354	0
12	104077	9.355	0
12	104088	9.356	0
12	104099	9.357	0
12	104110	9.358	0
12	104121	9.359	0
12	104132	9.36	0
12	104143	9.361	0
12	104154	9.362	0
12	104165	9.363	0
12	104176	9.364	0
12	104187	9.365	0
12	104198	9.366	0
12	104210	9.367	0
12	104221	9.368	0
12	104232	9.369	0
12	104243	9.37	0
12	104254	9.371	0
12	104265	9.372	0
12	104276	9.373	0
12	104287	9.374	0
12	104298	9.375	0
12	104309	9.376	0
12	104320	9.377	0
12	104331	9.378	0
12	104342	9.379	0
12	104353	9.38	0
12	104364	9.381	0
12	104375	9.382	0
12	104386	9.383	0
12	104397	9.384	0
12	104408	9.385	0
12	104419	9.386	0
12	104430	9.387	0
12	104441	9.388	0
12	104453	9.389	0
12	104464	9.39	0
12	104475	9.391	0
12	104486	9.392	0
12	104498	9.393	0
12	104509	9.394	60
12	104520	9.395	0
12	104531	9.396	0
12	104543	9.397	0
12	104554	9.398	0
12	104565	9.399	0
12	104576	9.4	0
12	104587	9.401	0
12	104598	9.402	0
12	104609	9.403	0
12	104621	9.404	0
12	104632	9.405	0
12	104643	9.406	0
12	104654	9.407	0
12	104665	9.408	0
12	104676	9.409	0
12	104687	9.41	0
12	104698	9.411	0
12	104709	9.412	0
12	104721	9.413	0
12	104732	9.414	0
12	104743	9.415	0
12	104754	9.416	0
12	104765	9.417	0
12	104776	9.418	0
12	104787	9.419	0
12	104798	9.42	0
12	104809	9.421	0
12	104820	9.422	0
12	104831	9.423	0
12	104842	9.424	0
12	104853	9.425	0
12	104864	9.426	0
12	104875	9.427	0
12	104887	9.428	0
12	104898	9.429	0
12	104910	9.43	0
12	104922	9.431	0
12	104933	9.432	0
12	104944	9.433	0
12	104955	9.434	0
12	104966	9.435	0
12	104978	9.436	0
12	104989	9.437	0
12	105001	9.438	0
12	105012	9.439	0
12	105023	9.44	0
12	105034	9.441	0
12	105045	9.442	0
12	105056	9.443	0
12	105068	9.444	0
12	105079	9.445	0
12	105090	9.446	0
12	105101	9.447	0
12	105112	9.448	0
12	105123	9.449	0
12	105135	9.45	0
12	105146	9.451	0
12	105157	9.452	0
12	105168	9.453	0
12	105179	9.454	0
12	105190	9.455	0
12	105201	9.456	0
12	105212	9.457	0
12	105223	9.458	0
12	105234	9.459	0
12	105245	9.46	0
12	105256	9.461	0
12	105267	9.462	0
12	105278	9.463	0
12	105289	9.464	0
12	105300	9.465	0
12	105311	9.466	0
12	105322	9.467	0
12	105333	9.468	0
12	105344	9.469	0
12	105355	9.47	0
12	105366	9.471	0
12	105377	9.472	0
12	105388	9.473	0
12	105399	9.474	0
12	105410	9.475	0
12	105421	9.476	0
12	105432	9.477	0
12	105443	9.478	0
12	105455	9.479	0
12	105467	9.48	0
12	105478	9.481	0
12	105489	9.482	0
12	105500	9.483	0
12	105511	9.484	0
12	105522	9.485	0
12	105533	9.486	0
12	105545	9.487	0
12	105556	9.488	0
12	105567	9.489	0
12	105579	9.49	0
12	105590	9.491	0
12	105601	9.492	0
12	105612	9.493	0
12	105623	9.494	0
12	105634	9.495	0
12	105645	9.496	0
12	105656	9.497	0
12	105667	9.498	0
12	105678	9.499	0
12	105689	9.5	0
12	105700	9.501	0
12	105711	9.502	0
12	105722	9.503	0
12	105733	9.504	0
12	105744	9.505	0
12	105755	9.506	0
12	105766	9.507	0
12	105778	9.508	0
12	105789	9.509	0
12	105800	9.51	0
12	105811	9.511	0
12	105823	9.512	0
12	105834	9.513	0
12	105845	9.514	0
12	105857	9.515	0
12	105868	9.516	33
12	105879	9.517	0
12	105890	9.518	0
12	105902	9.519	0
12	105914	9.52	0
12	105925	9.521	0
12	105936	9.522	0
12	105947	9.523	0
12	105958	9.524	0
12	105969	9.525	0
12	105980	9.526	0
12	105991	9.527	0
12	106002	9.528	0
12	106013	9.529	0
12	106024	9.53	0
12	106035	9.531	0
12	106046	9.532	0
12	106057	9.533	0
12	106068	9.534	0
12	106079	9.535	0
12	106090	9.536	0
12	106101	9.537	0
12	106114	9.538	0
12	106125	9.539	36
12	106136	9.54	0
12	106147	9.541	0
12	106159	9.542	0
12	106170	9.543	0
12	106182	9.544	0
12	106193	9.545	0
12	106204	9.546	0
12	106216	9.547	0
12	106227	9.548	0
12	106239	9.549	0
12	106250	9.55	0
12	106261	9.551	0
12	106272	9.552	0
12	106283	9.553	0
12	106294	9.554	0
12	106305	9.555	0
12	106316	9.556	0
12	106327	9.557	0
12	106338	9.558	0
12	106349	9.559	0
12	106360	9.56	0
12	106371	9.561	0
12	106382	9.562	0
12	106394	9.563	0
12	106405	9.564	49
12	106416	9.565	0
12	106427	9.566	0
12	106438	9.567	0
12	106450	9.568	0
12	106461	9.569	0
12	106472	9.57	0
12	106483	9.571	0
12	106494	9.572	0
12	106505	9.573	0
12	106516	9.574	0
12	106528	9.575	0
12	106539	9.576	0
12	106550	9.577	0
12	106561	9.578	0
12	106572	9.579	0
12	106583	9.58	0
12	106594	9.581	0
12	106606	9.582	0
12	106617	9.583	0
12	106628	9.584	0
12	106639	9.585	0
12	106650	9.586	0
12	106661	9.587	0
12	106672	9.588	0
12	106683	9.589	0
12	106694	9.59	0
12	106705	9.591	0
12	106716	9.592	0
12	106727	9.593	0
12	106738	9.594	0
12	106749	9.595	0
12	106760	9.596	0
12	106771	9.597	0
12	106782	9.598	0
12	106793	9.599	0
12	106804	9.6	0
12	106815	9.601	0
12	106826	9.602	0
12	106837	9.603	0
12	106848	9.604	0
12	106859	9.605	0
12	106870	9.606	0
12	106881	9.607	0
12	106892	9.608	0
12	106903	9.609	0
12	106914	9.61	0
12	106925	9.611	0
12	106936	9.612	0
12	106947	9.613	0
12	106958	9.614	0
12	106969	9.615	0
12	106980	9.616	0
12	106991	9.617	0
12	107002	9.618	0
12	107013	9.619	0
12	107024	9.62	0
12	107036	9.621	0
12	107047	9.622	0
12	107058	9.623	0
12	107069	9.624	0
12	107080	9.625	0
12	107091	9.626	0
12	107102	9.627	0
12	107113	9.628	0
12	107124	9.629	0
12	107135	9.63	0
12	107146	9.631	0
12	107157	9.632	0
12	107168	9.633	0
12	107179	9.634	0
12	107190	9.635	0
12	107201	9.636	0
12	107212	9.637	0
12	107224	9.638	0
12	107235	9.639	36
12	107246	9.64	0
12	107257	9.641	0
12	107268	9.642	0
12	107279	9.643	0
12	107291	9.644	0
12	107302	9.645	0
12	107313	9.646	0
12	107324	9.647	0
12	107335	9.648	0
12	107346	9.649	0
12	107357	9.65	0
12	107368	9.651	0
12	107379	9.652	0
12	107390	9.653	0
12	107401	9.654	0
12	107412	9.655	0
12	107423	9.656	0
12	107434	9.657	0
12	107445	9.658	0
12	107456	9.659	0
12	107467	9.66	0
12	107478	9.661	0
12	107489	9.662	0
12	107500	9.663	0
12	107511	9.664	0
12	107522	9.665	0
12	107533	9.666	0
12	107544	9.667	0
12	107555	9.668	0
12	107566	9.669	0
12	107577	9.67	0
12	107589	9.671	0
12	107600	9.672	0
12	107611	9.673	0
12	107623	9.674	0
12	107635	9.675	0
12	107646	9.676	0
12	107657	9.677	0
12	107668	9.678	0
12	107679	9.679	0
12	107690	9.68	0
12	107701	9.681	0
12	107712	9.682	0
12	107723	9.683	0
12	107734	9.684	0
12	107745	9.685	0
12	107756	9.686	0
12	107767	9.687	0
12	107778	9.688	0
12	107789	9.689	0
12	107800	9.69	0
12	107811	9.691	0
12	107822	9.692	0
12	107834	9.693	0
12	107845	9.694	0
12	107856	9.695	0
12	107867	9.696	0
12	107878	9.697	0
12	107890	9.698	0
12	107901	9.699	0
12	107912	9.7	0
12	107923	9.701	0
12	107934	9.702	0
12	107945	9.703	0
12	107956	9.704	0
12	107969	9.705	0
12	107980	9.706	0
12	107991	9.707	0
12	108002	9.708	0
12	108013	9.709	0
12	108024	9.71	0
12	108035	9.711	0
12	108046	9.712	0
12	108057	9.713	0
12	108068	9.714	0
12	108079	9.715	0
12	108090	9.716	0
12	108101	9.717	0
12	108112	9.718	0
12	108123	9.719	0
12	108134	9.72	0
12	108145	9.721	0
12	108157	9.722	0
12	108168	9.723	0
12	108179	9.724	0
12	108190	9.725	0
12	108201	9.726	0
12	108212	9.727	0
12	108223	9.728	0
12	108234	9.729	0
12	108245	9.73	0
12	108256	9.731	0
12	108267	9.732	0
12	108278	9.733	0
12	108289	9.734	0
12	108300	9.735	0
12	108311	9.736	0
12	108322	9.737	0
12	108334	9.738	0
12	108345	9.739	68
12	108356	9.74	0
12	108367	9.741	0
12	108379	9.742	0
12	108390	9.743	0
12	108401	9.744	0
12	108412	9.745	0
12	108423	9.746	0
12	108434	9.747	0
12	108445	9.748	0
12	108456	9.749	0
12	108467	9.75	0
12	108479	9.751	0
12	108491	9.752	0
12	108502	9.753	0
12	108513	9.754	0
12	108524	9.755	0
12	108535	9.756	0
12	108546	9.757	0
12	108557	9.758	0
12	108570	9.759	0
12	108581	9.76	0
12	108592	9.761	0
12	108603	9.762	0
12	108614	9.763	0
12	108625	9.764	0
12	108636	9.765	0
12	108647	9.766	0
12	108658	9.767	0
12	108669	9.768	0
12	108680	9.769	0
12	108691	9.77	0
12	108702	9.771	0
12	108713	9.772	0
12	108724	9.773	0
12	108735	9.774	0
12	108747	9.775	0
12	108758	9.776	0
12	108769	9.777	0
12	108780	9.778	0
12	108791	9.779	0
12	108802	9.78	0
12	108813	9.781	0
12	108824	9.782	0
12	108835	9.783	0
12	108846	9.784	0
12	108857	9.785	0
12	108868	9.786	0
12	108879	9.787	0
12	108890	9.788	0
12	108901	9.789	0
12	108912	9.79	0
12	108923	9.791	0
12	108934	9.792	0
12	108945	9.793	0
12	108956	9.794	0
12	108967	9.795	0
12	108978	9.796	0
12	108989	9.797	0
12	109000	9.798	0
12	109011	9.799	0
12	109022	9.8	0
12	109033	9.801	0
12	109044	9.802	0
12	109055	9.803	0
12	109066	9.804	0
12	109078	9.805	0
12	109089	9.806	0
12	109100	9.807	0
12	109111	9.808	0
12	109122	9.809	0
12	109133	9.81	0
12	109144	9.811	0
12	109155	9.812	0
12	109166	9.813	0
12	109177	9.814	0
12	109188	9.815	0
12	109199	9.816	0
12	109210	9.817	0
12	109221	9.818	0
12	109232	9.819	0
12	109243	9.82	0
12	109254	9.821	0
12	109265	9.822	0
12	109276	9.823	0
12	109287	9.824	0
12	109298	9.825	0
12	109309	9.826	0
12	109320	9.827	0
12	109331	9.828	0
12	109342	9.829	0
12	109353	9.83	0
12	109364	9.831	0
12	109375	9.832	0
12	109386	9.833	0
12	109397	9.834	0
12	109408	9.835	0
12	109419	9.836	0
12	109431	9.837	0
12	109442	9.838	0
12	109453	9.839	0
12	109464	9.84	0
12	109475	9.841	0
12	109486	9.842	0
12	109498	9.843	0
12	109509	9.844	48
12	109520	9.845	0
12	109531	9.846	0
12	109542	9.847	0
12	109554	9.848	0
12	109567	9.849	0
12	109578	9.85	72
12	109589	9.851	0
12	109600	9.852	0
12	109611	9.853	0
12	109622	9.854	0
12	109633	9.855	0
12	109644	9.856	0
12	109655	9.857	0
12	109666	9.858	0
12	109677	9.859	0
12	109688	9.86	0
12	109699	9.861	0
12	109710	9.862	0
12	109721	9.863	0
12	109733	9.864	0
12	109745	9.865	0
12	109756	9.866	0
12	109767	9.867	0
12	109778	9.868	0
12	109789	9.869	0
12	109800	9.87	0
12	109811	9.871	0
12	109822	9.872	0
12	109833	9.873	0
12	109844	9.874	0
12	109855	9.875	0
12	109866	9.876	0
12	109877	9.877	0
12	109888	9.878	0
12	109899	9.879	0
12	109910	9.88	0
12	109921	9.881	0
12	109932	9.882	0
12	109944	9.883	0
12	109955	9.884	0
12	109966	9.885	0
12	109977	9.886	0
12	109989	9.887	0
12	110000	9.888	0
12	110011	9.889	0
12	110022	9.89	0
12	110033	9.891	0
12	110044	9.892	0
12	110055	9.893	0
12	110066	9.894	0
12	110078	9.895	0
12	110089	9.896	0
12	110102	9.897	0
12	110113	9.898	0
12	110124	9.899	0
12	110135	9.9	0
12	110147	9.901	0
12	110158	9.902	0
12	110170	9.903	0
12	110181	9.904	0
12	110192	9.905	0
12	110203	9.906	0
12	110214	9.907	0
12	110225	9.908	0
12	110236	9.909	0
12	110247	9.91	0
12	110258	9.911	0
12	110269	9.912	0
12	110280	9.913	0
12	110291	9.914	0
12	110303	9.915	0
12	110315	9.916	0
12	110326	9.917	0
12	110337	9.918	0
12	110348	9.919	0
12	110359	9.92	0
12	110370	9.921	0
12	110381	9.922	0
12	110392	9.923	0
12	110403	9.924	0
12	110414	9.925	0
12	110425	9.926	0
12	110436	9.927	0
12	110447	9.928	0
12	110458	9.929	0
12	110469	9.93	0
12	110480	9.931	0
12	110491	9.932	0
12	110503	9.933	0
12	110514	9.934	0
12	110525	9.935	0
12	110536	9.936	0
12	110548	9.937	0
12	110559	9.938	0
12	110570	9.939	0
12	110581	9.94	0
12	110592	9.941	0
12	110603	9.942	0
12	110614	9.943	0
12	110625	9.944	0
12	110637	9.945	0
12	110649	9.946	0
12	110660	9.947	0
12	110671	9.948	0
12	110682	9.949	0
12	110694	9.95	0
12	110705	9.951	0
12	110716	9.952	0
12	110728	9.953	0
12	110740	9.954	0
12	110751	9.955	0
12	110763	9.956	0
12	110774	9.957	74
12	110785	9.958	0
12	110796	9.959	0
12	110807	9.96	0
12	110818	9.961	0
12	110829	9.962	0
12	110840	9.963	0
12	110851	9.964	0
12	110862	9.965	0
12	110873	9.966	0
12	110884	9.967	0
12	110895	9.968	0
12	110907	9.969	0
12	110918	9.97	51
12	110929	9.971	0
12	110940	9.972	0
12	110951	9.973	0
12	110962	9.974	0
12	110973	9.975	0
12	110984	9.976	0
12	110996	9.977	0
12	111007	9.978	51
12	111018	9.979	0
12	111029	9.98	0
12	111040	9.981	0
12	111052	9.982	0
12	111063	9.983	0
12	111074	9.984	0
12	111085	9.985	0
12	111096	9.986	0
12	111107	9.987	0
12	111118	9.988	0
12	111130	9.989	0
12	111141	9.99	0
12	111152	9.991	0
12	111163	9.992	0
12	111174	9.993	0
12	111185	9.994	0
12	111196	9.995	0
12	111207	9.996	0
12	111218	9.997	0
12	111229	9.998	0
12	111240	9.999	0
12	111251	10	0

